*SPEF "IEEE 1481-1999"
*DESIGN "almost_correct_adder16"
*DATE "Thu Aug 20 14:34:14 2020"
*VENDOR "SYNOPSYS INC"
*PROGRAM "Synopsys Design Compiler cmos"
*VERSION "N-2017.09-SP3"
*DESIGN_FLOW "SYNTHESIS"
*DIVIDER /
*DELIMITER :
*BUS_DELIMITER []
*T_UNIT 1.0 NS
*C_UNIT 0.0010 PF
*R_UNIT 1000.0 KOHM
*L_UNIT 1.0 HENRY

*PORTS

add1_i\[15\] I *L 0.000e+00 *S 0.000e+00 0.000e+00 
add1_i\[14\] I *L 0.000e+00 *S 0.000e+00 0.000e+00 
add1_i\[13\] I *L 0.000e+00 *S 0.000e+00 0.000e+00 
add1_i\[12\] I *L 0.000e+00 *S 0.000e+00 0.000e+00 
add1_i\[11\] I *L 0.000e+00 *S 0.000e+00 0.000e+00 
add1_i\[10\] I *L 0.000e+00 *S 0.000e+00 0.000e+00 
add1_i\[9\] I *L 0.000e+00 *S 0.000e+00 0.000e+00 
add1_i\[8\] I *L 0.000e+00 *S 0.000e+00 0.000e+00 
add1_i\[7\] I *L 0.000e+00 *S 0.000e+00 0.000e+00 
add1_i\[6\] I *L 0.000e+00 *S 0.000e+00 0.000e+00 
add1_i\[5\] I *L 0.000e+00 *S 0.000e+00 0.000e+00 
add1_i\[4\] I *L 0.000e+00 *S 0.000e+00 0.000e+00 
add1_i\[3\] I *L 0.000e+00 *S 0.000e+00 0.000e+00 
add1_i\[2\] I *L 0.000e+00 *S 0.000e+00 0.000e+00 
add1_i\[1\] I *L 0.000e+00 *S 0.000e+00 0.000e+00 
add1_i\[0\] I *L 0.000e+00 *S 0.000e+00 0.000e+00 
add2_i\[15\] I *L 0.000e+00 *S 0.000e+00 0.000e+00 
add2_i\[14\] I *L 0.000e+00 *S 0.000e+00 0.000e+00 
add2_i\[13\] I *L 0.000e+00 *S 0.000e+00 0.000e+00 
add2_i\[12\] I *L 0.000e+00 *S 0.000e+00 0.000e+00 
add2_i\[11\] I *L 0.000e+00 *S 0.000e+00 0.000e+00 
add2_i\[10\] I *L 0.000e+00 *S 0.000e+00 0.000e+00 
add2_i\[9\] I *L 0.000e+00 *S 0.000e+00 0.000e+00 
add2_i\[8\] I *L 0.000e+00 *S 0.000e+00 0.000e+00 
add2_i\[7\] I *L 0.000e+00 *S 0.000e+00 0.000e+00 
add2_i\[6\] I *L 0.000e+00 *S 0.000e+00 0.000e+00 
add2_i\[5\] I *L 0.000e+00 *S 0.000e+00 0.000e+00 
add2_i\[4\] I *L 0.000e+00 *S 0.000e+00 0.000e+00 
add2_i\[3\] I *L 0.000e+00 *S 0.000e+00 0.000e+00 
add2_i\[2\] I *L 0.000e+00 *S 0.000e+00 0.000e+00 
add2_i\[1\] I *L 0.000e+00 *S 0.000e+00 0.000e+00 
add2_i\[0\] I *L 0.000e+00 *S 0.000e+00 0.000e+00 
result_o\[16\] O *L 1.000e-01 *S 1.851e-03 1.752e-03 
result_o\[15\] O *L 1.000e-01 *S 2.700e-03 1.836e-03 
result_o\[14\] O *L 1.000e-01 *S 2.769e-03 1.850e-03 
result_o\[13\] O *L 1.000e-01 *S 2.769e-03 1.850e-03 
result_o\[12\] O *L 1.000e-01 *S 2.769e-03 1.850e-03 
result_o\[11\] O *L 1.000e-01 *S 2.769e-03 1.850e-03 
result_o\[10\] O *L 1.000e-01 *S 2.769e-03 1.850e-03 
result_o\[9\] O *L 1.000e-01 *S 2.769e-03 1.850e-03 
result_o\[8\] O *L 1.000e-01 *S 2.769e-03 1.850e-03 
result_o\[7\] O *L 1.000e-01 *S 2.769e-03 1.850e-03 
result_o\[6\] O *L 1.000e-01 *S 2.769e-03 1.850e-03 
result_o\[5\] O *L 1.000e-01 *S 2.769e-03 1.850e-03 
result_o\[4\] O *L 1.000e-01 *S 2.769e-03 1.850e-03 
result_o\[3\] O *L 1.000e-01 *S 2.769e-03 1.850e-03 
result_o\[2\] O *L 1.000e-01 *S 2.769e-03 1.850e-03 
result_o\[1\] O *L 1.000e-01 *S 2.769e-03 1.850e-03 
result_o\[0\] O *L 1.000e-01 *S 1.851e-03 1.752e-03 

*R_NET add1_i\[15\] 6.936e+00
*DRIVER add1_i\[15\]
*CELL NULL
*C2_R1_C1 3.468e+00 2.308e-02 3.468e+00 
*LOADS
*RC U247:A2 1.152e-02
*RC U245:A1 1.738e-02
*RC U299:A 2.446e-02
*END

*R_NET add1_i\[14\] 7.213e+00
*DRIVER add1_i\[14\]
*CELL NULL
*C2_R1_C1 3.606e+00 2.308e-02 3.606e+00 
*LOADS
*RC U234:A2 1.152e-02
*RC U232:A1 1.738e-02
*RC U191:B 2.659e-02
*END

*R_NET add1_i\[13\] 7.340e+00
*DRIVER add1_i\[13\]
*CELL NULL
*C2_R1_C1 3.670e+00 2.308e-02 3.670e+00 
*LOADS
*RC U281:A2 1.836e-02
*RC U295:A2 1.152e-02
*RC U193:B 2.659e-02
*END

*R_NET add1_i\[12\] 7.340e+00
*DRIVER add1_i\[12\]
*CELL NULL
*C2_R1_C1 3.670e+00 2.308e-02 3.670e+00 
*LOADS
*RC U236:A2 1.836e-02
*RC U260:A2 1.152e-02
*RC U195:B 2.659e-02
*END

*R_NET add1_i\[11\] 7.340e+00
*DRIVER add1_i\[11\]
*CELL NULL
*C2_R1_C1 3.670e+00 2.308e-02 3.670e+00 
*LOADS
*RC U239:A2 1.152e-02
*RC U241:A2 1.836e-02
*RC U197:B 2.659e-02
*END

*R_NET add1_i\[10\] 7.340e+00
*DRIVER add1_i\[10\]
*CELL NULL
*C2_R1_C1 3.670e+00 2.308e-02 3.670e+00 
*LOADS
*RC U238:A2 1.836e-02
*RC U300:A2 1.152e-02
*RC U199:B 2.659e-02
*END

*R_NET add1_i\[9\] 7.213e+00
*DRIVER add1_i\[9\]
*CELL NULL
*C2_R1_C1 3.606e+00 2.308e-02 3.606e+00 
*LOADS
*RC U255:A1 1.738e-02
*RC U256:A2 1.152e-02
*RC U173:B 2.659e-02
*END

*R_NET add1_i\[8\] 7.340e+00
*DRIVER add1_i\[8\]
*CELL NULL
*C2_R1_C1 3.670e+00 2.308e-02 3.670e+00 
*LOADS
*RC U249:A2 1.806e-02
*RC U284:A2 1.183e-02
*RC U175:B 2.659e-02
*END

*R_NET add1_i\[7\] 8.190e+00
*DRIVER add1_i\[7\]
*CELL NULL
*C2_R1_C1 4.095e+00 2.308e-02 4.095e+00 
*LOADS
*RC U248:A2 1.806e-02
*RC U280:A2 1.836e-02
*RC U177:B 2.659e-02
*END

*R_NET add1_i\[6\] 7.340e+00
*DRIVER add1_i\[6\]
*CELL NULL
*C2_R1_C1 3.670e+00 2.308e-02 3.670e+00 
*LOADS
*RC U254:A2 1.152e-02
*RC U258:A2 1.836e-02
*RC U179:B 2.659e-02
*END

*R_NET add1_i\[5\] 5.820e+00
*DRIVER add1_i\[5\]
*CELL NULL
*C2_R1_C1 2.910e+00 1.407e-02 2.910e+00 
*LOADS
*RC U296:A 1.686e-02
*RC U181:B 2.408e-02
*END

*R_NET add1_i\[4\] 7.340e+00
*DRIVER add1_i\[4\]
*CELL NULL
*C2_R1_C1 3.670e+00 2.308e-02 3.670e+00 
*LOADS
*RC U259:A2 1.836e-02
*RC U261:A2 1.152e-02
*RC U183:B 2.659e-02
*END

*R_NET add1_i\[3\] 9.656e+00
*DRIVER add1_i\[3\]
*CELL NULL
*C2_R1_C1 4.828e+00 3.293e-02 4.828e+00 
*LOADS
*RC U253:A1 1.848e-02
*RC U283:A2 1.255e-02
*RC U286:A2 1.987e-02
*RC U185:B 2.867e-02
*END

*R_NET add1_i\[2\] 9.656e+00
*DRIVER add1_i\[2\]
*CELL NULL
*C2_R1_C1 4.828e+00 3.293e-02 4.828e+00 
*LOADS
*RC U279:A1 1.848e-02
*RC U282:A2 1.255e-02
*RC U289:A2 1.987e-02
*RC U187:B 2.867e-02
*END

*R_NET add1_i\[1\] 9.525e+00
*DRIVER add1_i\[1\]
*CELL NULL
*C2_R1_C1 4.762e+00 3.293e-02 4.762e+00 
*LOADS
*RC U273:A2 1.837e-02
*RC U294:A2 1.255e-02
*RC U292:A1 1.882e-02
*RC U189:B 2.867e-02
*END

*R_NET add1_i\[0\] 3.819e+00
*DRIVER add1_i\[0\]
*CELL NULL
*C2_R1_C1 1.910e+00 1.407e-02 1.910e+00 
*LOADS
*RC U257:A2 1.031e-02
*RC U306:A2 1.656e-02
*END

*R_NET add2_i\[15\] 5.478e+00
*DRIVER add2_i\[15\]
*CELL NULL
*C2_R1_C1 2.739e+00 1.407e-02 2.739e+00 
*LOADS
*RC U246:A1 1.566e-02
*RC U299:B 2.296e-02
*END

*R_NET add2_i\[14\] 5.347e+00
*DRIVER add2_i\[14\]
*CELL NULL
*C2_R1_C1 2.674e+00 1.407e-02 2.674e+00 
*LOADS
*RC U233:A1 1.566e-02
*RC U191:A 2.195e-02
*END

*R_NET add2_i\[13\] 6.940e+00
*DRIVER add2_i\[13\]
*CELL NULL
*C2_R1_C1 3.470e+00 2.308e-02 3.470e+00 
*LOADS
*RC U281:A1 1.738e-02
*RC U295:A1 1.175e-02
*RC U193:A 2.426e-02
*END

*R_NET add2_i\[12\] 6.940e+00
*DRIVER add2_i\[12\]
*CELL NULL
*C2_R1_C1 3.470e+00 2.308e-02 3.470e+00 
*LOADS
*RC U236:A1 1.738e-02
*RC U260:A1 1.175e-02
*RC U195:A 2.426e-02
*END

*R_NET add2_i\[11\] 6.940e+00
*DRIVER add2_i\[11\]
*CELL NULL
*C2_R1_C1 3.470e+00 2.308e-02 3.470e+00 
*LOADS
*RC U239:A1 1.175e-02
*RC U241:A1 1.738e-02
*RC U197:A 2.426e-02
*END

*R_NET add2_i\[10\] 6.940e+00
*DRIVER add2_i\[10\]
*CELL NULL
*C2_R1_C1 3.470e+00 2.308e-02 3.470e+00 
*LOADS
*RC U238:A1 1.738e-02
*RC U300:A1 1.175e-02
*RC U199:A 2.426e-02
*END

*R_NET add2_i\[9\] 7.067e+00
*DRIVER add2_i\[9\]
*CELL NULL
*C2_R1_C1 3.533e+00 2.308e-02 3.533e+00 
*LOADS
*RC U255:A2 1.836e-02
*RC U256:A1 1.175e-02
*RC U173:A 2.426e-02
*END

*R_NET add2_i\[8\] 7.115e+00
*DRIVER add2_i\[8\]
*CELL NULL
*C2_R1_C1 3.557e+00 2.308e-02 3.557e+00 
*LOADS
*RC U249:A1 1.912e-02
*RC U284:A1 1.136e-02
*RC U175:A 2.426e-02
*END

*R_NET add2_i\[7\] 7.898e+00
*DRIVER add2_i\[7\]
*CELL NULL
*C2_R1_C1 3.949e+00 2.308e-02 3.949e+00 
*LOADS
*RC U248:A1 1.912e-02
*RC U280:A1 1.738e-02
*RC U177:A 2.426e-02
*END

*R_NET add2_i\[6\] 6.940e+00
*DRIVER add2_i\[6\]
*CELL NULL
*C2_R1_C1 3.470e+00 2.308e-02 3.470e+00 
*LOADS
*RC U254:A1 1.175e-02
*RC U258:A1 1.738e-02
*RC U179:A 2.426e-02
*END

*R_NET add2_i\[5\] 5.518e+00
*DRIVER add2_i\[5\]
*CELL NULL
*C2_R1_C1 2.759e+00 1.407e-02 2.759e+00 
*LOADS
*RC U297:A 1.686e-02
*RC U181:A 2.195e-02
*END

*R_NET add2_i\[4\] 6.940e+00
*DRIVER add2_i\[4\]
*CELL NULL
*C2_R1_C1 3.470e+00 2.308e-02 3.470e+00 
*LOADS
*RC U259:A1 1.738e-02
*RC U261:A1 1.175e-02
*RC U183:A 2.426e-02
*END

*R_NET add2_i\[3\] 9.413e+00
*DRIVER add2_i\[3\]
*CELL NULL
*C2_R1_C1 4.706e+00 3.293e-02 4.706e+00 
*LOADS
*RC U253:A3 1.970e-02
*RC U283:A1 1.279e-02
*RC U286:A1 1.882e-02
*RC U185:A 2.618e-02
*END

*R_NET add2_i\[2\] 9.413e+00
*DRIVER add2_i\[2\]
*CELL NULL
*C2_R1_C1 4.706e+00 3.293e-02 4.706e+00 
*LOADS
*RC U279:A3 1.970e-02
*RC U282:A1 1.279e-02
*RC U289:A1 1.882e-02
*RC U187:A 2.618e-02
*END

*R_NET add2_i\[1\] 7.517e+00
*DRIVER add2_i\[1\]
*CELL NULL
*C2_R1_C1 3.759e+00 2.308e-02 3.759e+00 
*LOADS
*RC U273:A1 1.672e-02
*RC U293:A1 1.738e-02
*RC U189:A 2.426e-02
*END

*R_NET add2_i\[0\] 3.721e+00
*DRIVER add2_i\[0\]
*CELL NULL
*C2_R1_C1 1.860e+00 1.407e-02 1.860e+00 
*LOADS
*RC U257:A1 1.051e-02
*RC U306:A1 1.566e-02
*END

*R_NET result_o\[16\] 4.097e-01
*DRIVER U244:ZN
*CELL NAND2_X1
*C2_R1_C1 2.049e-01 6.236e-03 2.049e-01 
*LOADS
*RC result_o\[16\] 2.555e-03
*END

*R_NET result_o\[15\] 4.097e-01
*DRIVER U298:ZN
*CELL XNOR2_X1
*C2_R1_C1 2.049e-01 6.236e-03 2.049e-01 
*LOADS
*RC result_o\[15\] 2.555e-03
*END

*R_NET result_o\[14\] 4.097e-01
*DRIVER U190:Z
*CELL XOR2_X1
*C2_R1_C1 2.049e-01 6.236e-03 2.049e-01 
*LOADS
*RC result_o\[14\] 2.555e-03
*END

*R_NET result_o\[13\] 4.097e-01
*DRIVER U192:Z
*CELL XOR2_X1
*C2_R1_C1 2.049e-01 6.236e-03 2.049e-01 
*LOADS
*RC result_o\[13\] 2.555e-03
*END

*R_NET result_o\[12\] 4.097e-01
*DRIVER U194:Z
*CELL XOR2_X1
*C2_R1_C1 2.049e-01 6.236e-03 2.049e-01 
*LOADS
*RC result_o\[12\] 2.555e-03
*END

*R_NET result_o\[11\] 4.097e-01
*DRIVER U196:Z
*CELL XOR2_X1
*C2_R1_C1 2.049e-01 6.236e-03 2.049e-01 
*LOADS
*RC result_o\[11\] 2.555e-03
*END

*R_NET result_o\[10\] 4.097e-01
*DRIVER U198:Z
*CELL XOR2_X1
*C2_R1_C1 2.049e-01 6.236e-03 2.049e-01 
*LOADS
*RC result_o\[10\] 2.555e-03
*END

*R_NET result_o\[9\] 4.097e-01
*DRIVER U172:Z
*CELL XOR2_X1
*C2_R1_C1 2.049e-01 6.236e-03 2.049e-01 
*LOADS
*RC result_o\[9\] 2.555e-03
*END

*R_NET result_o\[8\] 4.097e-01
*DRIVER U174:Z
*CELL XOR2_X1
*C2_R1_C1 2.049e-01 6.236e-03 2.049e-01 
*LOADS
*RC result_o\[8\] 2.555e-03
*END

*R_NET result_o\[7\] 4.097e-01
*DRIVER U176:Z
*CELL XOR2_X1
*C2_R1_C1 2.049e-01 6.236e-03 2.049e-01 
*LOADS
*RC result_o\[7\] 2.555e-03
*END

*R_NET result_o\[6\] 4.097e-01
*DRIVER U178:Z
*CELL XOR2_X1
*C2_R1_C1 2.049e-01 6.236e-03 2.049e-01 
*LOADS
*RC result_o\[6\] 2.555e-03
*END

*R_NET result_o\[5\] 4.097e-01
*DRIVER U180:Z
*CELL XOR2_X1
*C2_R1_C1 2.049e-01 6.236e-03 2.049e-01 
*LOADS
*RC result_o\[5\] 2.555e-03
*END

*R_NET result_o\[4\] 4.097e-01
*DRIVER U182:Z
*CELL XOR2_X1
*C2_R1_C1 2.049e-01 6.236e-03 2.049e-01 
*LOADS
*RC result_o\[4\] 2.555e-03
*END

*R_NET result_o\[3\] 4.097e-01
*DRIVER U184:Z
*CELL XOR2_X1
*C2_R1_C1 2.049e-01 6.236e-03 2.049e-01 
*LOADS
*RC result_o\[3\] 2.555e-03
*END

*R_NET result_o\[2\] 4.097e-01
*DRIVER U186:Z
*CELL XOR2_X1
*C2_R1_C1 2.049e-01 6.236e-03 2.049e-01 
*LOADS
*RC result_o\[2\] 2.555e-03
*END

*R_NET result_o\[1\] 4.097e-01
*DRIVER U188:Z
*CELL XOR2_X1
*C2_R1_C1 2.049e-01 6.236e-03 2.049e-01 
*LOADS
*RC result_o\[1\] 2.555e-03
*END

*R_NET result_o\[0\] 4.097e-01
*DRIVER U305:ZN
*CELL NAND2_X1
*C2_R1_C1 2.049e-01 6.236e-03 2.049e-01 
*LOADS
*RC result_o\[0\] 2.555e-03
*END

*R_NET n85 2.187e+00
*DRIVER U201:ZN
*CELL INV_X1
*C2_R1_C1 1.093e+00 6.236e-03 1.093e+00 
*LOADS
*RC U265:A1 1.364e-02
*END

*R_NET n86 2.187e+00
*DRIVER U271:ZN
*CELL INV_X1
*C2_R1_C1 1.093e+00 6.236e-03 1.093e+00 
*LOADS
*RC U270:A1 1.364e-02
*END

*R_NET n87 2.187e+00
*DRIVER U243:ZN
*CELL INV_X1
*C2_R1_C1 1.093e+00 6.236e-03 1.093e+00 
*LOADS
*RC U242:A1 1.364e-02
*END

*R_NET n88 1.455e+00
*DRIVER U212:ZN
*CELL INV_X1
*C2_R1_C1 7.276e-01 6.236e-03 7.276e-01 
*LOADS
*RC U211:A3 9.074e-03
*END

*R_NET n89 2.314e+00
*DRIVER U200:ZN
*CELL INV_X1
*C2_R1_C1 1.157e+00 6.236e-03 1.157e+00 
*LOADS
*RC U304:A2 1.443e-02
*END

*R_NET n90 2.314e+00
*DRIVER U222:ZN
*CELL INV_X1
*C2_R1_C1 1.157e+00 6.236e-03 1.157e+00 
*LOADS
*RC U221:A2 1.443e-02
*END

*R_NET n91 2.314e+00
*DRIVER U227:ZN
*CELL INV_X1
*C2_R1_C1 1.157e+00 6.236e-03 1.157e+00 
*LOADS
*RC U302:A2 1.443e-02
*END

*R_NET n92 2.187e+00
*DRIVER U217:ZN
*CELL INV_X1
*C2_R1_C1 1.093e+00 6.236e-03 1.093e+00 
*LOADS
*RC U216:A1 1.364e-02
*END

*R_NET n93 2.187e+00
*DRIVER U225:ZN
*CELL INV_X1
*C2_R1_C1 1.093e+00 6.236e-03 1.093e+00 
*LOADS
*RC U272:A1 1.364e-02
*END

*R_NET n94 2.187e+00
*DRIVER U230:ZN
*CELL INV_X1
*C2_R1_C1 1.093e+00 6.236e-03 1.093e+00 
*LOADS
*RC U229:A1 1.364e-02
*END

*R_NET n95 4.669e+00
*DRIVER U296:ZN
*CELL INV_X1
*C2_R1_C1 2.334e+00 1.407e-02 2.334e+00 
*LOADS
*RC U205:A2 1.628e-02
*RC U214:A2 1.656e-02
*END

*R_NET n96 2.100e+00
*DRIVER U226:ZN
*CELL INV_X1
*C2_R1_C1 1.050e+00 6.236e-03 1.050e+00 
*LOADS
*RC U277:A1 1.310e-02
*END

*R_NET n97 4.679e+00
*DRIVER U297:ZN
*CELL INV_X1
*C2_R1_C1 2.339e+00 1.407e-02 2.339e+00 
*LOADS
*RC U205:A1 1.725e-02
*RC U214:A1 1.566e-02
*END

*R_NET n98 3.081e+00
*DRIVER U276:ZN
*CELL NAND2_X1
*C2_R1_C1 1.541e+00 6.236e-03 1.541e+00 
*LOADS
*RC U172:A 1.921e-02
*END

*R_NET n99 3.383e+00
*DRIVER U173:Z
*CELL XOR2_X1
*C2_R1_C1 1.692e+00 6.236e-03 1.692e+00 
*LOADS
*RC U172:B 2.110e-02
*END

*R_NET n100 4.623e+00
*DRIVER U208:ZN
*CELL NOR2_X1
*C2_R1_C1 2.312e+00 1.407e-02 2.312e+00 
*LOADS
*RC U200:A 1.686e-02
*RC U276:A1 1.566e-02
*END

*R_NET n101 2.314e+00
*DRIVER U277:ZN
*CELL NAND4_X1
*C2_R1_C1 1.157e+00 6.236e-03 1.157e+00 
*LOADS
*RC U276:A2 1.443e-02
*END

*R_NET n102 5.990e+00
*DRIVER U204:ZN
*CELL NOR2_X1
*C2_R1_C1 2.995e+00 2.308e-02 2.995e+00 
*LOADS
*RC U209:A1 1.076e-02
*RC U216:A2 1.836e-02
*RC U277:A2 1.697e-02
*END

*R_NET n103 5.281e+00
*DRIVER U214:ZN
*CELL NAND2_X1
*C2_R1_C1 2.640e+00 2.308e-02 2.640e+00 
*LOADS
*RC U218:A2 1.126e-02
*RC U251:A2 1.183e-02
*RC U277:A3 1.754e-02
*END

*R_NET n104 8.704e+00
*DRIVER U254:ZN
*CELL OR2_X1
*C2_R1_C1 4.352e+00 3.293e-02 4.352e+00 
*LOADS
*RC U209:A2 1.227e-02
*RC U229:A2 1.987e-02
*RC U269:A2 1.987e-02
*RC U277:A4 1.965e-02
*END

*R_NET n105 6.948e+00
*DRIVER U259:ZN
*CELL NAND2_X1
*C2_R1_C1 3.474e+00 2.308e-02 3.474e+00 
*LOADS
*RC U226:A 1.869e-02
*RC U252:A1 1.738e-02
*RC U266:A1 1.738e-02
*END

*R_NET n106 3.081e+00
*DRIVER U301:ZN
*CELL NAND2_X1
*C2_R1_C1 1.541e+00 6.236e-03 1.541e+00 
*LOADS
*RC U174:A 1.921e-02
*END

*R_NET n107 3.383e+00
*DRIVER U175:Z
*CELL XOR2_X1
*C2_R1_C1 1.692e+00 6.236e-03 1.692e+00 
*LOADS
*RC U174:B 2.110e-02
*END

*R_NET n108 4.679e+00
*DRIVER U280:ZN
*CELL NAND2_X1
*C2_R1_C1 2.339e+00 1.407e-02 2.339e+00 
*LOADS
*RC U207:A1 1.725e-02
*RC U301:A1 1.566e-02
*END

*R_NET n109 2.314e+00
*DRIVER U302:ZN
*CELL NAND2_X1
*C2_R1_C1 1.157e+00 6.236e-03 1.157e+00 
*LOADS
*RC U301:A2 1.443e-02
*END

*R_NET n110 2.187e+00
*DRIVER U228:ZN
*CELL NAND2_X1
*C2_R1_C1 1.093e+00 6.236e-03 1.093e+00 
*LOADS
*RC U302:A1 1.364e-02
*END

*R_NET n111 4.849e+00
*DRIVER U248:ZN
*CELL NOR2_X1
*C2_R1_C1 2.425e+00 1.407e-02 2.425e+00 
*LOADS
*RC U204:A1 1.725e-02
*RC U227:A 1.686e-02
*END

*R_NET n112 6.948e+00
*DRIVER U258:ZN
*CELL NAND2_X1
*C2_R1_C1 3.474e+00 2.308e-02 3.474e+00 
*LOADS
*RC U217:A 1.869e-02
*RC U228:A1 1.738e-02
*RC U268:A1 1.738e-02
*END

*R_NET n113 2.314e+00
*DRIVER U229:ZN
*CELL NAND2_X1
*C2_R1_C1 1.157e+00 6.236e-03 1.157e+00 
*LOADS
*RC U228:A2 1.443e-02
*END

*R_NET n114 4.623e+00
*DRIVER U250:ZN
*CELL NOR2_X1
*C2_R1_C1 2.312e+00 1.407e-02 2.312e+00 
*LOADS
*RC U230:A 1.686e-02
*RC U278:A1 1.566e-02
*END

*R_NET n115 3.081e+00
*DRIVER U268:ZN
*CELL NAND2_X1
*C2_R1_C1 1.541e+00 6.236e-03 1.541e+00 
*LOADS
*RC U176:A 1.921e-02
*END

*R_NET n116 3.383e+00
*DRIVER U177:Z
*CELL XOR2_X1
*C2_R1_C1 1.692e+00 6.236e-03 1.692e+00 
*LOADS
*RC U176:B 2.110e-02
*END

*R_NET n117 2.314e+00
*DRIVER U269:ZN
*CELL NAND2_X1
*C2_R1_C1 1.157e+00 6.236e-03 1.157e+00 
*LOADS
*RC U268:A2 1.443e-02
*END

*R_NET n118 4.623e+00
*DRIVER U278:ZN
*CELL NAND2_X1
*C2_R1_C1 2.312e+00 1.407e-02 2.312e+00 
*LOADS
*RC U225:A 1.686e-02
*RC U269:A1 1.566e-02
*END

*R_NET n119 3.081e+00
*DRIVER U272:ZN
*CELL NAND2_X1
*C2_R1_C1 1.541e+00 6.236e-03 1.541e+00 
*LOADS
*RC U178:A 1.921e-02
*END

*R_NET n120 3.383e+00
*DRIVER U179:Z
*CELL XOR2_X1
*C2_R1_C1 1.692e+00 6.236e-03 1.692e+00 
*LOADS
*RC U178:B 2.110e-02
*END

*R_NET n121 2.314e+00
*DRIVER U273:ZN
*CELL NAND4_X1
*C2_R1_C1 1.157e+00 6.236e-03 1.157e+00 
*LOADS
*RC U272:A2 1.443e-02
*END

*R_NET n122 4.490e+00
*DRIVER U218:ZN
*CELL AND3_X1
*C2_R1_C1 2.245e+00 1.407e-02 2.245e+00 
*LOADS
*RC U273:A3 1.581e-02
*RC U279:A2 1.578e-02
*END

*R_NET n123 4.682e+00
*DRIVER U282:ZN
*CELL OR2_X1
*C2_R1_C1 2.341e+00 1.407e-02 2.341e+00 
*LOADS
*RC U273:A4 1.638e-02
*RC U290:A2 1.656e-02
*END

*R_NET n124 2.314e+00
*DRIVER U279:ZN
*CELL NAND3_X1
*C2_R1_C1 1.157e+00 6.236e-03 1.157e+00 
*LOADS
*RC U278:A2 1.443e-02
*END

*R_NET n125 6.060e+00
*DRIVER U261:ZN
*CELL OR2_X1
*C2_R1_C1 3.030e+00 2.308e-02 3.030e+00 
*LOADS
*RC U218:A1 1.076e-02
*RC U253:A2 1.751e-02
*RC U267:A2 1.836e-02
*END

*R_NET n126 3.849e+00
*DRIVER U283:ZN
*CELL OR2_X1
*C2_R1_C1 1.924e+00 1.407e-02 1.924e+00 
*LOADS
*RC U218:A3 1.052e-02
*RC U287:A2 1.656e-02
*END

*R_NET n127 3.947e+00
*DRIVER U205:ZN
*CELL NOR2_X1
*C2_R1_C1 1.974e+00 1.407e-02 1.974e+00 
*LOADS
*RC U209:A3 1.052e-02
*RC U250:A1 1.725e-02
*END

*R_NET n128 2.275e+00
*DRIVER U251:ZN
*CELL AND2_X1
*C2_R1_C1 1.138e+00 6.236e-03 1.138e+00 
*LOADS
*RC U250:A2 1.419e-02
*END

*R_NET n129 1.404e+00
*DRIVER U252:ZN
*CELL NAND2_X1
*C2_R1_C1 7.019e-01 6.236e-03 7.019e-01 
*LOADS
*RC U251:A1 8.754e-03
*END

*R_NET n130 2.314e+00
*DRIVER U253:ZN
*CELL NAND3_X1
*C2_R1_C1 1.157e+00 6.236e-03 1.157e+00 
*LOADS
*RC U252:A2 1.443e-02
*END

*R_NET n131 3.081e+00
*DRIVER U266:ZN
*CELL NAND2_X1
*C2_R1_C1 1.541e+00 6.236e-03 1.541e+00 
*LOADS
*RC U180:A 1.921e-02
*END

*R_NET n132 3.383e+00
*DRIVER U181:Z
*CELL XOR2_X1
*C2_R1_C1 1.692e+00 6.236e-03 1.692e+00 
*LOADS
*RC U180:B 2.110e-02
*END

*R_NET n133 2.314e+00
*DRIVER U267:ZN
*CELL NAND2_X1
*C2_R1_C1 1.157e+00 6.236e-03 1.157e+00 
*LOADS
*RC U266:A2 1.443e-02
*END

*R_NET n134 5.347e+00
*DRIVER U285:ZN
*CELL NAND2_X1
*C2_R1_C1 2.674e+00 1.407e-02 2.674e+00 
*LOADS
*RC U267:A1 1.566e-02
*RC U182:A 2.195e-02
*END

*R_NET n135 3.383e+00
*DRIVER U183:Z
*CELL XOR2_X1
*C2_R1_C1 1.692e+00 6.236e-03 1.692e+00 
*LOADS
*RC U182:B 2.110e-02
*END

*R_NET n136 2.187e+00
*DRIVER U286:ZN
*CELL NAND2_X1
*C2_R1_C1 1.093e+00 6.236e-03 1.093e+00 
*LOADS
*RC U285:A1 1.364e-02
*END

*R_NET n137 2.314e+00
*DRIVER U287:ZN
*CELL NAND2_X1
*C2_R1_C1 1.157e+00 6.236e-03 1.157e+00 
*LOADS
*RC U285:A2 1.443e-02
*END

*R_NET n138 5.347e+00
*DRIVER U288:ZN
*CELL NAND2_X1
*C2_R1_C1 2.674e+00 1.407e-02 2.674e+00 
*LOADS
*RC U287:A1 1.566e-02
*RC U184:A 2.195e-02
*END

*R_NET n139 3.383e+00
*DRIVER U185:Z
*CELL XOR2_X1
*C2_R1_C1 1.692e+00 6.236e-03 1.692e+00 
*LOADS
*RC U184:B 2.110e-02
*END

*R_NET n140 2.187e+00
*DRIVER U289:ZN
*CELL NAND2_X1
*C2_R1_C1 1.093e+00 6.236e-03 1.093e+00 
*LOADS
*RC U288:A1 1.364e-02
*END

*R_NET n141 2.314e+00
*DRIVER U290:ZN
*CELL NAND2_X1
*C2_R1_C1 1.157e+00 6.236e-03 1.157e+00 
*LOADS
*RC U288:A2 1.443e-02
*END

*R_NET n142 5.347e+00
*DRIVER U291:ZN
*CELL NAND2_X1
*C2_R1_C1 2.674e+00 1.407e-02 2.674e+00 
*LOADS
*RC U290:A1 1.566e-02
*RC U186:A 2.195e-02
*END

*R_NET n143 3.383e+00
*DRIVER U187:Z
*CELL XOR2_X1
*C2_R1_C1 1.692e+00 6.236e-03 1.692e+00 
*LOADS
*RC U186:B 2.110e-02
*END

*R_NET n144 2.187e+00
*DRIVER U292:ZN
*CELL NAND2_X1
*C2_R1_C1 1.093e+00 6.236e-03 1.093e+00 
*LOADS
*RC U291:A1 1.364e-02
*END

*R_NET n145 2.314e+00
*DRIVER U293:ZN
*CELL NAND2_X1
*C2_R1_C1 1.157e+00 6.236e-03 1.157e+00 
*LOADS
*RC U291:A2 1.443e-02
*END

*R_NET n146 2.314e+00
*DRIVER U294:ZN
*CELL OR2_X1
*C2_R1_C1 1.157e+00 6.236e-03 1.157e+00 
*LOADS
*RC U293:A2 1.443e-02
*END

*R_NET n147 9.433e+00
*DRIVER U257:ZN
*CELL OR2_X1
*C2_R1_C1 4.717e+00 3.293e-02 4.717e+00 
*LOADS
*RC U294:A1 1.279e-02
*RC U292:A2 1.987e-02
*RC U305:A1 1.882e-02
*RC U188:A 2.618e-02
*END

*R_NET n148 3.383e+00
*DRIVER U189:Z
*CELL XOR2_X1
*C2_R1_C1 1.692e+00 6.236e-03 1.692e+00 
*LOADS
*RC U188:B 2.110e-02
*END

*R_NET n149 2.187e+00
*DRIVER U245:ZN
*CELL NAND2_X1
*C2_R1_C1 1.093e+00 6.236e-03 1.093e+00 
*LOADS
*RC U244:A1 1.364e-02
*END

*R_NET n150 2.314e+00
*DRIVER U246:ZN
*CELL NAND2_X1
*C2_R1_C1 1.157e+00 6.236e-03 1.157e+00 
*LOADS
*RC U244:A2 1.443e-02
*END

*R_NET n151 2.314e+00
*DRIVER U247:ZN
*CELL OR2_X1
*C2_R1_C1 1.157e+00 6.236e-03 1.157e+00 
*LOADS
*RC U246:A2 1.443e-02
*END

*R_NET n152 7.198e+00
*DRIVER U231:ZN
*CELL NAND2_X1
*C2_R1_C1 3.599e+00 2.308e-02 3.599e+00 
*LOADS
*RC U247:A1 1.175e-02
*RC U245:A2 1.836e-02
*RC U298:B 2.536e-02
*END

*R_NET n153 3.106e+00
*DRIVER U299:ZN
*CELL XNOR2_X1
*C2_R1_C1 1.553e+00 6.236e-03 1.553e+00 
*LOADS
*RC U298:A 1.937e-02
*END

*R_NET n154 2.187e+00
*DRIVER U232:ZN
*CELL NAND2_X1
*C2_R1_C1 1.093e+00 6.236e-03 1.093e+00 
*LOADS
*RC U231:A1 1.364e-02
*END

*R_NET n155 2.314e+00
*DRIVER U233:ZN
*CELL NAND2_X1
*C2_R1_C1 1.157e+00 6.236e-03 1.157e+00 
*LOADS
*RC U231:A2 1.443e-02
*END

*R_NET n156 2.314e+00
*DRIVER U234:ZN
*CELL OR2_X1
*C2_R1_C1 1.157e+00 6.236e-03 1.157e+00 
*LOADS
*RC U233:A2 1.443e-02
*END

*R_NET n157 3.848e+00
*DRIVER U202:ZN
*CELL NAND2_X1
*C2_R1_C1 1.924e+00 1.407e-02 1.924e+00 
*LOADS
*RC U234:A1 1.051e-02
*RC U232:A2 1.656e-02
*END

*R_NET n158 4.453e+00
*DRIVER U281:ZN
*CELL NAND2_X1
*C2_R1_C1 2.226e+00 1.407e-02 2.226e+00 
*LOADS
*RC U202:A1 1.566e-02
*RC U264:A1 1.566e-02
*END

*R_NET n159 2.314e+00
*DRIVER U203:ZN
*CELL NAND2_X1
*C2_R1_C1 1.157e+00 6.236e-03 1.157e+00 
*LOADS
*RC U202:A2 1.443e-02
*END

*R_NET n160 4.580e+00
*DRIVER U295:ZN
*CELL OR2_X1
*C2_R1_C1 2.290e+00 1.407e-02 2.290e+00 
*LOADS
*RC U203:A1 1.566e-02
*RC U265:A2 1.656e-02
*END

*R_NET n161 4.806e+00
*DRIVER U235:ZN
*CELL NAND2_X1
*C2_R1_C1 2.403e+00 1.407e-02 2.403e+00 
*LOADS
*RC U203:A2 1.656e-02
*RC U210:A1 1.725e-02
*END

*R_NET n162 3.081e+00
*DRIVER U264:ZN
*CELL NAND2_X1
*C2_R1_C1 1.541e+00 6.236e-03 1.541e+00 
*LOADS
*RC U190:A 1.921e-02
*END

*R_NET n163 3.383e+00
*DRIVER U191:Z
*CELL XOR2_X1
*C2_R1_C1 1.692e+00 6.236e-03 1.692e+00 
*LOADS
*RC U190:B 2.110e-02
*END

*R_NET n164 2.314e+00
*DRIVER U265:ZN
*CELL NAND2_X1
*C2_R1_C1 1.157e+00 6.236e-03 1.157e+00 
*LOADS
*RC U264:A2 1.443e-02
*END

*R_NET n165 4.623e+00
*DRIVER U210:ZN
*CELL NOR2_X1
*C2_R1_C1 2.312e+00 1.407e-02 2.312e+00 
*LOADS
*RC U201:A 1.686e-02
*RC U274:A1 1.566e-02
*END

*R_NET n166 3.081e+00
*DRIVER U274:ZN
*CELL NAND2_X1
*C2_R1_C1 1.541e+00 6.236e-03 1.541e+00 
*LOADS
*RC U192:A 1.921e-02
*END

*R_NET n167 3.383e+00
*DRIVER U193:Z
*CELL XOR2_X1
*C2_R1_C1 1.692e+00 6.236e-03 1.692e+00 
*LOADS
*RC U192:B 2.110e-02
*END

*R_NET n168 2.314e+00
*DRIVER U275:ZN
*CELL NAND4_X1
*C2_R1_C1 1.157e+00 6.236e-03 1.157e+00 
*LOADS
*RC U274:A2 1.443e-02
*END

*R_NET n169 4.524e+00
*DRIVER U284:ZN
*CELL AND2_X1
*C2_R1_C1 2.262e+00 1.407e-02 2.262e+00 
*LOADS
*RC U206:A1 1.725e-02
*RC U275:A1 1.505e-02
*END

*R_NET n170 5.863e+00
*DRIVER U213:ZN
*CELL AND2_X1
*C2_R1_C1 2.931e+00 2.308e-02 2.931e+00 
*LOADS
*RC U211:A1 1.076e-02
*RC U219:A1 1.738e-02
*RC U275:A2 1.697e-02
*END

*R_NET n171 9.165e+00
*DRIVER U256:ZN
*CELL OR2_X1
*C2_R1_C1 4.582e+00 3.293e-02 4.582e+00 
*LOADS
*RC U221:A1 1.882e-02
*RC U224:A1 1.882e-02
*RC U275:A3 1.899e-02
*RC U304:A1 1.882e-02
*END

*R_NET n172 6.211e+00
*DRIVER U260:ZN
*CELL OR2_X1
*C2_R1_C1 3.105e+00 2.308e-02 3.105e+00 
*LOADS
*RC U211:A2 1.126e-02
*RC U237:A2 1.836e-02
*RC U275:A4 1.816e-02
*END

*R_NET n173 2.275e+00
*DRIVER U211:ZN
*CELL AND3_X1
*C2_R1_C1 1.138e+00 6.236e-03 1.138e+00 
*LOADS
*RC U210:A2 1.419e-02
*END

*R_NET n174 9.314e+00
*DRIVER U255:ZN
*CELL NAND2_X1
*C2_R1_C1 4.657e+00 3.293e-02 4.657e+00 
*LOADS
*RC U212:A 2.022e-02
*RC U220:A1 1.882e-02
*RC U223:A1 1.882e-02
*RC U303:A1 1.882e-02
*END

*R_NET n175 2.187e+00
*DRIVER U236:ZN
*CELL NAND2_X1
*C2_R1_C1 1.093e+00 6.236e-03 1.093e+00 
*LOADS
*RC U235:A1 1.364e-02
*END

*R_NET n176 2.314e+00
*DRIVER U237:ZN
*CELL NAND2_X1
*C2_R1_C1 1.157e+00 6.236e-03 1.157e+00 
*LOADS
*RC U235:A2 1.443e-02
*END

*R_NET n177 4.623e+00
*DRIVER U240:ZN
*CELL NAND2_X1
*C2_R1_C1 2.312e+00 1.407e-02 2.312e+00 
*LOADS
*RC U237:A1 1.566e-02
*RC U271:A 1.686e-02
*END

*R_NET n178 3.081e+00
*DRIVER U270:ZN
*CELL NAND2_X1
*C2_R1_C1 1.541e+00 6.236e-03 1.541e+00 
*LOADS
*RC U194:A 1.921e-02
*END

*R_NET n179 3.383e+00
*DRIVER U195:Z
*CELL XOR2_X1
*C2_R1_C1 1.692e+00 6.236e-03 1.692e+00 
*LOADS
*RC U194:B 2.110e-02
*END

*R_NET n180 2.314e+00
*DRIVER U219:ZN
*CELL NAND2_X1
*C2_R1_C1 1.157e+00 6.236e-03 1.157e+00 
*LOADS
*RC U270:A2 1.443e-02
*END

*R_NET n181 2.314e+00
*DRIVER U220:ZN
*CELL NAND2_X1
*C2_R1_C1 1.157e+00 6.236e-03 1.157e+00 
*LOADS
*RC U219:A2 1.443e-02
*END

*R_NET n182 2.314e+00
*DRIVER U221:ZN
*CELL NAND2_X1
*C2_R1_C1 1.157e+00 6.236e-03 1.157e+00 
*LOADS
*RC U220:A2 1.443e-02
*END

*R_NET n183 4.623e+00
*DRIVER U206:ZN
*CELL NOR2_X1
*C2_R1_C1 2.312e+00 1.407e-02 2.312e+00 
*LOADS
*RC U215:A1 1.566e-02
*RC U222:A 1.686e-02
*END

*R_NET n184 3.797e+00
*DRIVER U300:ZN
*CELL OR2_X1
*C2_R1_C1 1.899e+00 1.407e-02 1.899e+00 
*LOADS
*RC U213:A1 1.015e-02
*RC U263:A2 1.656e-02
*END

*R_NET n185 3.858e+00
*DRIVER U239:ZN
*CELL OR2_X1
*C2_R1_C1 1.929e+00 1.407e-02 1.929e+00 
*LOADS
*RC U213:A2 1.058e-02
*RC U242:A2 1.656e-02
*END

*R_NET n186 2.187e+00
*DRIVER U241:ZN
*CELL NAND2_X1
*C2_R1_C1 1.093e+00 6.236e-03 1.093e+00 
*LOADS
*RC U240:A1 1.364e-02
*END

*R_NET n187 2.314e+00
*DRIVER U242:ZN
*CELL NAND2_X1
*C2_R1_C1 1.157e+00 6.236e-03 1.157e+00 
*LOADS
*RC U240:A2 1.443e-02
*END

*R_NET n188 4.623e+00
*DRIVER U238:ZN
*CELL NAND2_X1
*C2_R1_C1 2.312e+00 1.407e-02 2.312e+00 
*LOADS
*RC U243:A 1.686e-02
*RC U262:A1 1.566e-02
*END

*R_NET n189 3.081e+00
*DRIVER U262:ZN
*CELL NAND2_X1
*C2_R1_C1 1.541e+00 6.236e-03 1.541e+00 
*LOADS
*RC U196:A 1.921e-02
*END

*R_NET n190 3.383e+00
*DRIVER U197:Z
*CELL XOR2_X1
*C2_R1_C1 1.692e+00 6.236e-03 1.692e+00 
*LOADS
*RC U196:B 2.110e-02
*END

*R_NET n191 2.314e+00
*DRIVER U263:ZN
*CELL NAND2_X1
*C2_R1_C1 1.157e+00 6.236e-03 1.157e+00 
*LOADS
*RC U262:A2 1.443e-02
*END

*R_NET n192 2.187e+00
*DRIVER U223:ZN
*CELL NAND2_X1
*C2_R1_C1 1.093e+00 6.236e-03 1.093e+00 
*LOADS
*RC U263:A1 1.364e-02
*END

*R_NET n193 2.314e+00
*DRIVER U224:ZN
*CELL NAND2_X1
*C2_R1_C1 1.157e+00 6.236e-03 1.157e+00 
*LOADS
*RC U223:A2 1.443e-02
*END

*R_NET n194 4.806e+00
*DRIVER U215:ZN
*CELL NAND2_X1
*C2_R1_C1 2.403e+00 1.407e-02 2.403e+00 
*LOADS
*RC U208:A1 1.725e-02
*RC U224:A2 1.656e-02
*END

*R_NET n195 3.081e+00
*DRIVER U303:ZN
*CELL NAND2_X1
*C2_R1_C1 1.541e+00 6.236e-03 1.541e+00 
*LOADS
*RC U198:A 1.921e-02
*END

*R_NET n196 3.383e+00
*DRIVER U199:Z
*CELL XOR2_X1
*C2_R1_C1 1.692e+00 6.236e-03 1.692e+00 
*LOADS
*RC U198:B 2.110e-02
*END

*R_NET n197 2.314e+00
*DRIVER U304:ZN
*CELL NAND2_X1
*C2_R1_C1 1.157e+00 6.236e-03 1.157e+00 
*LOADS
*RC U303:A2 1.443e-02
*END

*R_NET n198 2.275e+00
*DRIVER U209:ZN
*CELL AND3_X1
*C2_R1_C1 1.138e+00 6.236e-03 1.138e+00 
*LOADS
*RC U208:A2 1.419e-02
*END

*R_NET n199 2.314e+00
*DRIVER U216:ZN
*CELL NAND2_X1
*C2_R1_C1 1.157e+00 6.236e-03 1.157e+00 
*LOADS
*RC U215:A2 1.443e-02
*END

*R_NET n200 4.630e+00
*DRIVER U249:ZN
*CELL NOR2_X1
*C2_R1_C1 2.315e+00 1.407e-02 2.315e+00 
*LOADS
*RC U204:A2 1.628e-02
*RC U207:A2 1.628e-02
*END

*R_NET n201 2.275e+00
*DRIVER U207:ZN
*CELL NOR2_X1
*C2_R1_C1 1.138e+00 6.236e-03 1.138e+00 
*LOADS
*RC U206:A2 1.419e-02
*END

*R_NET n202 2.314e+00
*DRIVER U306:ZN
*CELL NAND2_X1
*C2_R1_C1 1.157e+00 6.236e-03 1.157e+00 
*LOADS
*RC U305:A2 1.443e-02
*END
