*SPEF "IEEE 1481-1999"
*DESIGN "lower_part_or_carry_lookahead_adder16"
*DATE "Tue Aug 18 15:15:24 2020"
*VENDOR "SYNOPSYS INC"
*PROGRAM "Synopsys Design Compiler cmos"
*VERSION "N-2017.09-SP3"
*DESIGN_FLOW "SYNTHESIS"
*DIVIDER /
*DELIMITER :
*BUS_DELIMITER []
*T_UNIT 1.0 NS
*C_UNIT 0.0010 PF
*R_UNIT 1000.0 KOHM
*L_UNIT 1.0 HENRY

*PORTS

add1_i\[15\] I *L 0.000e+00 *S 0.000e+00 0.000e+00 
add1_i\[14\] I *L 0.000e+00 *S 0.000e+00 0.000e+00 
add1_i\[13\] I *L 0.000e+00 *S 0.000e+00 0.000e+00 
add1_i\[12\] I *L 0.000e+00 *S 0.000e+00 0.000e+00 
add1_i\[11\] I *L 0.000e+00 *S 0.000e+00 0.000e+00 
add1_i\[10\] I *L 0.000e+00 *S 0.000e+00 0.000e+00 
add1_i\[9\] I *L 0.000e+00 *S 0.000e+00 0.000e+00 
add1_i\[8\] I *L 0.000e+00 *S 0.000e+00 0.000e+00 
add1_i\[7\] I *L 0.000e+00 *S 0.000e+00 0.000e+00 
add1_i\[6\] I *L 0.000e+00 *S 0.000e+00 0.000e+00 
add1_i\[5\] I *L 0.000e+00 *S 0.000e+00 0.000e+00 
add1_i\[4\] I *L 0.000e+00 *S 0.000e+00 0.000e+00 
add1_i\[3\] I *L 0.000e+00 *S 0.000e+00 0.000e+00 
add1_i\[2\] I *L 0.000e+00 *S 0.000e+00 0.000e+00 
add1_i\[1\] I *L 0.000e+00 *S 0.000e+00 0.000e+00 
add1_i\[0\] I *L 0.000e+00 *S 0.000e+00 0.000e+00 
add2_i\[15\] I *L 0.000e+00 *S 0.000e+00 0.000e+00 
add2_i\[14\] I *L 0.000e+00 *S 0.000e+00 0.000e+00 
add2_i\[13\] I *L 0.000e+00 *S 0.000e+00 0.000e+00 
add2_i\[12\] I *L 0.000e+00 *S 0.000e+00 0.000e+00 
add2_i\[11\] I *L 0.000e+00 *S 0.000e+00 0.000e+00 
add2_i\[10\] I *L 0.000e+00 *S 0.000e+00 0.000e+00 
add2_i\[9\] I *L 0.000e+00 *S 0.000e+00 0.000e+00 
add2_i\[8\] I *L 0.000e+00 *S 0.000e+00 0.000e+00 
add2_i\[7\] I *L 0.000e+00 *S 0.000e+00 0.000e+00 
add2_i\[6\] I *L 0.000e+00 *S 0.000e+00 0.000e+00 
add2_i\[5\] I *L 0.000e+00 *S 0.000e+00 0.000e+00 
add2_i\[4\] I *L 0.000e+00 *S 0.000e+00 0.000e+00 
add2_i\[3\] I *L 0.000e+00 *S 0.000e+00 0.000e+00 
add2_i\[2\] I *L 0.000e+00 *S 0.000e+00 0.000e+00 
add2_i\[1\] I *L 0.000e+00 *S 0.000e+00 0.000e+00 
add2_i\[0\] I *L 0.000e+00 *S 0.000e+00 0.000e+00 
result_o\[16\] O *L 1.000e-01 *S 1.851e-03 1.752e-03 
result_o\[15\] O *L 1.000e-01 *S 2.769e-03 1.850e-03 
result_o\[14\] O *L 1.000e-01 *S 2.769e-03 1.850e-03 
result_o\[13\] O *L 1.000e-01 *S 2.769e-03 1.850e-03 
result_o\[12\] O *L 1.000e-01 *S 2.769e-03 1.850e-03 
result_o\[11\] O *L 1.000e-01 *S 2.769e-03 1.850e-03 
result_o\[10\] O *L 1.000e-01 *S 2.769e-03 1.850e-03 
result_o\[9\] O *L 1.000e-01 *S 2.769e-03 1.850e-03 
result_o\[8\] O *L 1.000e-01 *S 2.769e-03 1.850e-03 
result_o\[7\] O *L 1.000e-01 *S 2.769e-03 1.850e-03 
result_o\[6\] O *L 1.000e-01 *S 2.769e-03 1.850e-03 
result_o\[5\] O *L 1.000e-01 *S 2.769e-03 1.850e-03 
result_o\[4\] O *L 1.000e-01 *S 2.769e-03 1.850e-03 
result_o\[3\] O *L 1.000e-01 *S 1.851e-03 1.752e-03 
result_o\[2\] O *L 1.000e-01 *S 1.262e-03 1.189e-03 
result_o\[1\] O *L 1.000e-01 *S 1.262e-03 1.189e-03 
result_o\[0\] O *L 1.000e-01 *S 1.262e-03 1.189e-03 

*R_NET add1_i\[15\] 7.213e+00
*DRIVER add1_i\[15\]
*CELL NULL
*C2_R1_C1 3.606e+00 2.308e-02 3.606e+00 
*LOADS
*RC U135:A2 1.152e-02
*RC U133:A1 1.738e-02
*RC U76:B 2.659e-02
*END

*R_NET add1_i\[14\] 7.213e+00
*DRIVER add1_i\[14\]
*CELL NULL
*C2_R1_C1 3.606e+00 2.308e-02 3.606e+00 
*LOADS
*RC U131:A2 1.152e-02
*RC U129:A1 1.738e-02
*RC U78:B 2.659e-02
*END

*R_NET add1_i\[13\] 7.213e+00
*DRIVER add1_i\[13\]
*CELL NULL
*C2_R1_C1 3.606e+00 2.308e-02 3.606e+00 
*LOADS
*RC U127:A2 1.152e-02
*RC U125:A1 1.738e-02
*RC U80:B 2.659e-02
*END

*R_NET add1_i\[12\] 7.213e+00
*DRIVER add1_i\[12\]
*CELL NULL
*C2_R1_C1 3.606e+00 2.308e-02 3.606e+00 
*LOADS
*RC U123:A2 1.152e-02
*RC U121:A1 1.738e-02
*RC U82:B 2.659e-02
*END

*R_NET add1_i\[11\] 7.213e+00
*DRIVER add1_i\[11\]
*CELL NULL
*C2_R1_C1 3.606e+00 2.308e-02 3.606e+00 
*LOADS
*RC U119:A2 1.152e-02
*RC U117:A1 1.738e-02
*RC U84:B 2.659e-02
*END

*R_NET add1_i\[10\] 7.213e+00
*DRIVER add1_i\[10\]
*CELL NULL
*C2_R1_C1 3.606e+00 2.308e-02 3.606e+00 
*LOADS
*RC U115:A2 1.152e-02
*RC U113:A1 1.738e-02
*RC U86:B 2.659e-02
*END

*R_NET add1_i\[9\] 7.213e+00
*DRIVER add1_i\[9\]
*CELL NULL
*C2_R1_C1 3.606e+00 2.308e-02 3.606e+00 
*LOADS
*RC U111:A2 1.152e-02
*RC U109:A1 1.738e-02
*RC U64:B 2.659e-02
*END

*R_NET add1_i\[8\] 7.213e+00
*DRIVER add1_i\[8\]
*CELL NULL
*C2_R1_C1 3.606e+00 2.308e-02 3.606e+00 
*LOADS
*RC U107:A2 1.152e-02
*RC U105:A1 1.738e-02
*RC U66:B 2.659e-02
*END

*R_NET add1_i\[7\] 7.213e+00
*DRIVER add1_i\[7\]
*CELL NULL
*C2_R1_C1 3.606e+00 2.308e-02 3.606e+00 
*LOADS
*RC U103:A2 1.152e-02
*RC U101:A1 1.738e-02
*RC U68:B 2.659e-02
*END

*R_NET add1_i\[6\] 7.213e+00
*DRIVER add1_i\[6\]
*CELL NULL
*C2_R1_C1 3.606e+00 2.308e-02 3.606e+00 
*LOADS
*RC U99:A2 1.152e-02
*RC U97:A1 1.738e-02
*RC U70:B 2.659e-02
*END

*R_NET add1_i\[5\] 7.213e+00
*DRIVER add1_i\[5\]
*CELL NULL
*C2_R1_C1 3.606e+00 2.308e-02 3.606e+00 
*LOADS
*RC U95:A2 1.152e-02
*RC U93:A1 1.738e-02
*RC U72:B 2.659e-02
*END

*R_NET add1_i\[4\] 7.340e+00
*DRIVER add1_i\[4\]
*CELL NULL
*C2_R1_C1 3.670e+00 2.308e-02 3.670e+00 
*LOADS
*RC U91:A2 1.152e-02
*RC U89:A2 1.836e-02
*RC U74:B 2.659e-02
*END

*R_NET add1_i\[3\] 4.573e+00
*DRIVER add1_i\[3\]
*CELL NULL
*C2_R1_C1 2.287e+00 1.407e-02 2.287e+00 
*LOADS
*RC U90:A1 1.538e-02
*RC U137:A 1.686e-02
*END

*R_NET add1_i\[2\] 1.454e+00
*DRIVER add1_i\[2\]
*CELL NULL
*C2_R1_C1 7.272e-01 6.236e-03 7.272e-01 
*LOADS
*RC U141:A1 9.069e-03
*END

*R_NET add1_i\[1\] 1.454e+00
*DRIVER add1_i\[1\]
*CELL NULL
*C2_R1_C1 7.272e-01 6.236e-03 7.272e-01 
*LOADS
*RC U140:A1 9.069e-03
*END

*R_NET add1_i\[0\] 1.454e+00
*DRIVER add1_i\[0\]
*CELL NULL
*C2_R1_C1 7.272e-01 6.236e-03 7.272e-01 
*LOADS
*RC U139:A1 9.069e-03
*END

*R_NET add2_i\[15\] 5.347e+00
*DRIVER add2_i\[15\]
*CELL NULL
*C2_R1_C1 2.674e+00 1.407e-02 2.674e+00 
*LOADS
*RC U134:A1 1.566e-02
*RC U76:A 2.195e-02
*END

*R_NET add2_i\[14\] 5.347e+00
*DRIVER add2_i\[14\]
*CELL NULL
*C2_R1_C1 2.674e+00 1.407e-02 2.674e+00 
*LOADS
*RC U130:A1 1.566e-02
*RC U78:A 2.195e-02
*END

*R_NET add2_i\[13\] 5.347e+00
*DRIVER add2_i\[13\]
*CELL NULL
*C2_R1_C1 2.674e+00 1.407e-02 2.674e+00 
*LOADS
*RC U126:A1 1.566e-02
*RC U80:A 2.195e-02
*END

*R_NET add2_i\[12\] 5.347e+00
*DRIVER add2_i\[12\]
*CELL NULL
*C2_R1_C1 2.674e+00 1.407e-02 2.674e+00 
*LOADS
*RC U122:A1 1.566e-02
*RC U82:A 2.195e-02
*END

*R_NET add2_i\[11\] 5.347e+00
*DRIVER add2_i\[11\]
*CELL NULL
*C2_R1_C1 2.674e+00 1.407e-02 2.674e+00 
*LOADS
*RC U118:A1 1.566e-02
*RC U84:A 2.195e-02
*END

*R_NET add2_i\[10\] 5.347e+00
*DRIVER add2_i\[10\]
*CELL NULL
*C2_R1_C1 2.674e+00 1.407e-02 2.674e+00 
*LOADS
*RC U114:A1 1.566e-02
*RC U86:A 2.195e-02
*END

*R_NET add2_i\[9\] 5.347e+00
*DRIVER add2_i\[9\]
*CELL NULL
*C2_R1_C1 2.674e+00 1.407e-02 2.674e+00 
*LOADS
*RC U110:A1 1.566e-02
*RC U64:A 2.195e-02
*END

*R_NET add2_i\[8\] 5.347e+00
*DRIVER add2_i\[8\]
*CELL NULL
*C2_R1_C1 2.674e+00 1.407e-02 2.674e+00 
*LOADS
*RC U106:A1 1.566e-02
*RC U66:A 2.195e-02
*END

*R_NET add2_i\[7\] 5.347e+00
*DRIVER add2_i\[7\]
*CELL NULL
*C2_R1_C1 2.674e+00 1.407e-02 2.674e+00 
*LOADS
*RC U102:A1 1.566e-02
*RC U68:A 2.195e-02
*END

*R_NET add2_i\[6\] 5.347e+00
*DRIVER add2_i\[6\]
*CELL NULL
*C2_R1_C1 2.674e+00 1.407e-02 2.674e+00 
*LOADS
*RC U98:A1 1.566e-02
*RC U70:A 2.195e-02
*END

*R_NET add2_i\[5\] 5.347e+00
*DRIVER add2_i\[5\]
*CELL NULL
*C2_R1_C1 2.674e+00 1.407e-02 2.674e+00 
*LOADS
*RC U94:A1 1.566e-02
*RC U72:A 2.195e-02
*END

*R_NET add2_i\[4\] 6.940e+00
*DRIVER add2_i\[4\]
*CELL NULL
*C2_R1_C1 3.470e+00 2.308e-02 3.470e+00 
*LOADS
*RC U91:A1 1.175e-02
*RC U89:A1 1.738e-02
*RC U74:A 2.426e-02
*END

*R_NET add2_i\[3\] 4.730e+00
*DRIVER add2_i\[3\]
*CELL NULL
*C2_R1_C1 2.365e+00 1.407e-02 2.365e+00 
*LOADS
*RC U90:A3 1.641e-02
*RC U138:A 1.686e-02
*END

*R_NET add2_i\[2\] 1.426e+00
*DRIVER add2_i\[2\]
*CELL NULL
*C2_R1_C1 7.128e-01 6.236e-03 7.128e-01 
*LOADS
*RC U141:A2 8.889e-03
*END

*R_NET add2_i\[1\] 1.426e+00
*DRIVER add2_i\[1\]
*CELL NULL
*C2_R1_C1 7.128e-01 6.236e-03 7.128e-01 
*LOADS
*RC U140:A2 8.889e-03
*END

*R_NET add2_i\[0\] 1.426e+00
*DRIVER add2_i\[0\]
*CELL NULL
*C2_R1_C1 7.128e-01 6.236e-03 7.128e-01 
*LOADS
*RC U139:A2 8.889e-03
*END

*R_NET result_o\[16\] 4.097e-01
*DRIVER U132:ZN
*CELL NAND2_X1
*C2_R1_C1 2.049e-01 6.236e-03 2.049e-01 
*LOADS
*RC result_o\[16\] 2.555e-03
*END

*R_NET result_o\[15\] 4.097e-01
*DRIVER U75:Z
*CELL XOR2_X1
*C2_R1_C1 2.049e-01 6.236e-03 2.049e-01 
*LOADS
*RC result_o\[15\] 2.555e-03
*END

*R_NET result_o\[14\] 4.097e-01
*DRIVER U77:Z
*CELL XOR2_X1
*C2_R1_C1 2.049e-01 6.236e-03 2.049e-01 
*LOADS
*RC result_o\[14\] 2.555e-03
*END

*R_NET result_o\[13\] 4.097e-01
*DRIVER U79:Z
*CELL XOR2_X1
*C2_R1_C1 2.049e-01 6.236e-03 2.049e-01 
*LOADS
*RC result_o\[13\] 2.555e-03
*END

*R_NET result_o\[12\] 4.097e-01
*DRIVER U81:Z
*CELL XOR2_X1
*C2_R1_C1 2.049e-01 6.236e-03 2.049e-01 
*LOADS
*RC result_o\[12\] 2.555e-03
*END

*R_NET result_o\[11\] 4.097e-01
*DRIVER U83:Z
*CELL XOR2_X1
*C2_R1_C1 2.049e-01 6.236e-03 2.049e-01 
*LOADS
*RC result_o\[11\] 2.555e-03
*END

*R_NET result_o\[10\] 4.097e-01
*DRIVER U85:Z
*CELL XOR2_X1
*C2_R1_C1 2.049e-01 6.236e-03 2.049e-01 
*LOADS
*RC result_o\[10\] 2.555e-03
*END

*R_NET result_o\[9\] 4.097e-01
*DRIVER U63:Z
*CELL XOR2_X1
*C2_R1_C1 2.049e-01 6.236e-03 2.049e-01 
*LOADS
*RC result_o\[9\] 2.555e-03
*END

*R_NET result_o\[8\] 4.097e-01
*DRIVER U65:Z
*CELL XOR2_X1
*C2_R1_C1 2.049e-01 6.236e-03 2.049e-01 
*LOADS
*RC result_o\[8\] 2.555e-03
*END

*R_NET result_o\[7\] 4.097e-01
*DRIVER U67:Z
*CELL XOR2_X1
*C2_R1_C1 2.049e-01 6.236e-03 2.049e-01 
*LOADS
*RC result_o\[7\] 2.555e-03
*END

*R_NET result_o\[6\] 4.097e-01
*DRIVER U69:Z
*CELL XOR2_X1
*C2_R1_C1 2.049e-01 6.236e-03 2.049e-01 
*LOADS
*RC result_o\[6\] 2.555e-03
*END

*R_NET result_o\[5\] 4.097e-01
*DRIVER U71:Z
*CELL XOR2_X1
*C2_R1_C1 2.049e-01 6.236e-03 2.049e-01 
*LOADS
*RC result_o\[5\] 2.555e-03
*END

*R_NET result_o\[4\] 4.097e-01
*DRIVER U73:Z
*CELL XOR2_X1
*C2_R1_C1 2.049e-01 6.236e-03 2.049e-01 
*LOADS
*RC result_o\[4\] 2.555e-03
*END

*R_NET result_o\[3\] 4.097e-01
*DRIVER U87:ZN
*CELL NAND2_X1
*C2_R1_C1 2.049e-01 6.236e-03 2.049e-01 
*LOADS
*RC result_o\[3\] 2.555e-03
*END

*R_NET result_o\[2\] 4.097e-01
*DRIVER U141:ZN
*CELL OR2_X1
*C2_R1_C1 2.049e-01 6.236e-03 2.049e-01 
*LOADS
*RC result_o\[2\] 2.555e-03
*END

*R_NET result_o\[1\] 4.097e-01
*DRIVER U140:ZN
*CELL OR2_X1
*C2_R1_C1 2.049e-01 6.236e-03 2.049e-01 
*LOADS
*RC result_o\[1\] 2.555e-03
*END

*R_NET result_o\[0\] 4.097e-01
*DRIVER U139:ZN
*CELL OR2_X1
*C2_R1_C1 2.049e-01 6.236e-03 2.049e-01 
*LOADS
*RC result_o\[0\] 2.555e-03
*END

*R_NET n14 4.806e+00
*DRIVER U137:ZN
*CELL INV_X1
*C2_R1_C1 2.403e+00 1.407e-02 2.403e+00 
*LOADS
*RC U87:A2 1.656e-02
*RC U136:A1 1.725e-02
*END

*R_NET n15 4.541e+00
*DRIVER U138:ZN
*CELL INV_X1
*C2_R1_C1 2.271e+00 1.407e-02 2.271e+00 
*LOADS
*RC U87:A1 1.566e-02
*RC U136:A2 1.628e-02
*END

*R_NET n16 7.067e+00
*DRIVER U104:ZN
*CELL NAND2_X1
*C2_R1_C1 3.533e+00 2.308e-02 3.533e+00 
*LOADS
*RC U111:A1 1.175e-02
*RC U109:A2 1.836e-02
*RC U63:A 2.426e-02
*END

*R_NET n17 3.383e+00
*DRIVER U64:Z
*CELL XOR2_X1
*C2_R1_C1 1.692e+00 6.236e-03 1.692e+00 
*LOADS
*RC U63:B 2.110e-02
*END

*R_NET n18 7.067e+00
*DRIVER U100:ZN
*CELL NAND2_X1
*C2_R1_C1 3.533e+00 2.308e-02 3.533e+00 
*LOADS
*RC U107:A1 1.175e-02
*RC U105:A2 1.836e-02
*RC U65:A 2.426e-02
*END

*R_NET n19 3.383e+00
*DRIVER U66:Z
*CELL XOR2_X1
*C2_R1_C1 1.692e+00 6.236e-03 1.692e+00 
*LOADS
*RC U65:B 2.110e-02
*END

*R_NET n20 7.067e+00
*DRIVER U96:ZN
*CELL NAND2_X1
*C2_R1_C1 3.533e+00 2.308e-02 3.533e+00 
*LOADS
*RC U103:A1 1.175e-02
*RC U101:A2 1.836e-02
*RC U67:A 2.426e-02
*END

*R_NET n21 3.383e+00
*DRIVER U68:Z
*CELL XOR2_X1
*C2_R1_C1 1.692e+00 6.236e-03 1.692e+00 
*LOADS
*RC U67:B 2.110e-02
*END

*R_NET n22 7.067e+00
*DRIVER U92:ZN
*CELL NAND2_X1
*C2_R1_C1 3.533e+00 2.308e-02 3.533e+00 
*LOADS
*RC U99:A1 1.175e-02
*RC U97:A2 1.836e-02
*RC U69:A 2.426e-02
*END

*R_NET n23 3.383e+00
*DRIVER U70:Z
*CELL XOR2_X1
*C2_R1_C1 1.692e+00 6.236e-03 1.692e+00 
*LOADS
*RC U69:B 2.110e-02
*END

*R_NET n24 7.067e+00
*DRIVER U88:ZN
*CELL NAND2_X1
*C2_R1_C1 3.533e+00 2.308e-02 3.533e+00 
*LOADS
*RC U95:A1 1.175e-02
*RC U93:A2 1.836e-02
*RC U71:A 2.426e-02
*END

*R_NET n25 3.383e+00
*DRIVER U72:Z
*CELL XOR2_X1
*C2_R1_C1 1.692e+00 6.236e-03 1.692e+00 
*LOADS
*RC U71:B 2.110e-02
*END

*R_NET n26 3.081e+00
*DRIVER U136:ZN
*CELL NOR2_X1
*C2_R1_C1 1.541e+00 6.236e-03 1.541e+00 
*LOADS
*RC U73:A 1.921e-02
*END

*R_NET n27 3.383e+00
*DRIVER U74:Z
*CELL XOR2_X1
*C2_R1_C1 1.692e+00 6.236e-03 1.692e+00 
*LOADS
*RC U73:B 2.110e-02
*END

*R_NET n28 2.187e+00
*DRIVER U133:ZN
*CELL NAND2_X1
*C2_R1_C1 1.093e+00 6.236e-03 1.093e+00 
*LOADS
*RC U132:A1 1.364e-02
*END

*R_NET n29 2.314e+00
*DRIVER U134:ZN
*CELL NAND2_X1
*C2_R1_C1 1.157e+00 6.236e-03 1.157e+00 
*LOADS
*RC U132:A2 1.443e-02
*END

*R_NET n30 2.314e+00
*DRIVER U135:ZN
*CELL OR2_X1
*C2_R1_C1 1.157e+00 6.236e-03 1.157e+00 
*LOADS
*RC U134:A2 1.443e-02
*END

*R_NET n31 7.067e+00
*DRIVER U128:ZN
*CELL NAND2_X1
*C2_R1_C1 3.533e+00 2.308e-02 3.533e+00 
*LOADS
*RC U135:A1 1.175e-02
*RC U133:A2 1.836e-02
*RC U75:A 2.426e-02
*END

*R_NET n32 3.383e+00
*DRIVER U76:Z
*CELL XOR2_X1
*C2_R1_C1 1.692e+00 6.236e-03 1.692e+00 
*LOADS
*RC U75:B 2.110e-02
*END

*R_NET n33 2.187e+00
*DRIVER U129:ZN
*CELL NAND2_X1
*C2_R1_C1 1.093e+00 6.236e-03 1.093e+00 
*LOADS
*RC U128:A1 1.364e-02
*END

*R_NET n34 2.314e+00
*DRIVER U130:ZN
*CELL NAND2_X1
*C2_R1_C1 1.157e+00 6.236e-03 1.157e+00 
*LOADS
*RC U128:A2 1.443e-02
*END

*R_NET n35 2.314e+00
*DRIVER U131:ZN
*CELL OR2_X1
*C2_R1_C1 1.157e+00 6.236e-03 1.157e+00 
*LOADS
*RC U130:A2 1.443e-02
*END

*R_NET n36 7.067e+00
*DRIVER U124:ZN
*CELL NAND2_X1
*C2_R1_C1 3.533e+00 2.308e-02 3.533e+00 
*LOADS
*RC U131:A1 1.175e-02
*RC U129:A2 1.836e-02
*RC U77:A 2.426e-02
*END

*R_NET n37 3.383e+00
*DRIVER U78:Z
*CELL XOR2_X1
*C2_R1_C1 1.692e+00 6.236e-03 1.692e+00 
*LOADS
*RC U77:B 2.110e-02
*END

*R_NET n38 2.187e+00
*DRIVER U125:ZN
*CELL NAND2_X1
*C2_R1_C1 1.093e+00 6.236e-03 1.093e+00 
*LOADS
*RC U124:A1 1.364e-02
*END

*R_NET n39 2.314e+00
*DRIVER U126:ZN
*CELL NAND2_X1
*C2_R1_C1 1.157e+00 6.236e-03 1.157e+00 
*LOADS
*RC U124:A2 1.443e-02
*END

*R_NET n40 2.314e+00
*DRIVER U127:ZN
*CELL OR2_X1
*C2_R1_C1 1.157e+00 6.236e-03 1.157e+00 
*LOADS
*RC U126:A2 1.443e-02
*END

*R_NET n41 7.067e+00
*DRIVER U120:ZN
*CELL NAND2_X1
*C2_R1_C1 3.533e+00 2.308e-02 3.533e+00 
*LOADS
*RC U127:A1 1.175e-02
*RC U125:A2 1.836e-02
*RC U79:A 2.426e-02
*END

*R_NET n42 3.383e+00
*DRIVER U80:Z
*CELL XOR2_X1
*C2_R1_C1 1.692e+00 6.236e-03 1.692e+00 
*LOADS
*RC U79:B 2.110e-02
*END

*R_NET n43 2.187e+00
*DRIVER U121:ZN
*CELL NAND2_X1
*C2_R1_C1 1.093e+00 6.236e-03 1.093e+00 
*LOADS
*RC U120:A1 1.364e-02
*END

*R_NET n44 2.314e+00
*DRIVER U122:ZN
*CELL NAND2_X1
*C2_R1_C1 1.157e+00 6.236e-03 1.157e+00 
*LOADS
*RC U120:A2 1.443e-02
*END

*R_NET n45 2.314e+00
*DRIVER U123:ZN
*CELL OR2_X1
*C2_R1_C1 1.157e+00 6.236e-03 1.157e+00 
*LOADS
*RC U122:A2 1.443e-02
*END

*R_NET n46 7.067e+00
*DRIVER U116:ZN
*CELL NAND2_X1
*C2_R1_C1 3.533e+00 2.308e-02 3.533e+00 
*LOADS
*RC U123:A1 1.175e-02
*RC U121:A2 1.836e-02
*RC U81:A 2.426e-02
*END

*R_NET n47 3.383e+00
*DRIVER U82:Z
*CELL XOR2_X1
*C2_R1_C1 1.692e+00 6.236e-03 1.692e+00 
*LOADS
*RC U81:B 2.110e-02
*END

*R_NET n48 2.187e+00
*DRIVER U117:ZN
*CELL NAND2_X1
*C2_R1_C1 1.093e+00 6.236e-03 1.093e+00 
*LOADS
*RC U116:A1 1.364e-02
*END

*R_NET n49 2.314e+00
*DRIVER U118:ZN
*CELL NAND2_X1
*C2_R1_C1 1.157e+00 6.236e-03 1.157e+00 
*LOADS
*RC U116:A2 1.443e-02
*END

*R_NET n50 2.314e+00
*DRIVER U119:ZN
*CELL OR2_X1
*C2_R1_C1 1.157e+00 6.236e-03 1.157e+00 
*LOADS
*RC U118:A2 1.443e-02
*END

*R_NET n51 7.067e+00
*DRIVER U112:ZN
*CELL NAND2_X1
*C2_R1_C1 3.533e+00 2.308e-02 3.533e+00 
*LOADS
*RC U119:A1 1.175e-02
*RC U117:A2 1.836e-02
*RC U83:A 2.426e-02
*END

*R_NET n52 3.383e+00
*DRIVER U84:Z
*CELL XOR2_X1
*C2_R1_C1 1.692e+00 6.236e-03 1.692e+00 
*LOADS
*RC U83:B 2.110e-02
*END

*R_NET n53 2.187e+00
*DRIVER U113:ZN
*CELL NAND2_X1
*C2_R1_C1 1.093e+00 6.236e-03 1.093e+00 
*LOADS
*RC U112:A1 1.364e-02
*END

*R_NET n54 2.314e+00
*DRIVER U114:ZN
*CELL NAND2_X1
*C2_R1_C1 1.157e+00 6.236e-03 1.157e+00 
*LOADS
*RC U112:A2 1.443e-02
*END

*R_NET n55 2.314e+00
*DRIVER U115:ZN
*CELL OR2_X1
*C2_R1_C1 1.157e+00 6.236e-03 1.157e+00 
*LOADS
*RC U114:A2 1.443e-02
*END

*R_NET n56 7.067e+00
*DRIVER U108:ZN
*CELL NAND2_X1
*C2_R1_C1 3.533e+00 2.308e-02 3.533e+00 
*LOADS
*RC U115:A1 1.175e-02
*RC U113:A2 1.836e-02
*RC U85:A 2.426e-02
*END

*R_NET n57 3.383e+00
*DRIVER U86:Z
*CELL XOR2_X1
*C2_R1_C1 1.692e+00 6.236e-03 1.692e+00 
*LOADS
*RC U85:B 2.110e-02
*END

*R_NET n58 2.187e+00
*DRIVER U109:ZN
*CELL NAND2_X1
*C2_R1_C1 1.093e+00 6.236e-03 1.093e+00 
*LOADS
*RC U108:A1 1.364e-02
*END

*R_NET n59 2.314e+00
*DRIVER U110:ZN
*CELL NAND2_X1
*C2_R1_C1 1.157e+00 6.236e-03 1.157e+00 
*LOADS
*RC U108:A2 1.443e-02
*END

*R_NET n60 2.314e+00
*DRIVER U111:ZN
*CELL OR2_X1
*C2_R1_C1 1.157e+00 6.236e-03 1.157e+00 
*LOADS
*RC U110:A2 1.443e-02
*END

*R_NET n61 2.187e+00
*DRIVER U105:ZN
*CELL NAND2_X1
*C2_R1_C1 1.093e+00 6.236e-03 1.093e+00 
*LOADS
*RC U104:A1 1.364e-02
*END

*R_NET n62 2.314e+00
*DRIVER U106:ZN
*CELL NAND2_X1
*C2_R1_C1 1.157e+00 6.236e-03 1.157e+00 
*LOADS
*RC U104:A2 1.443e-02
*END

*R_NET n63 2.314e+00
*DRIVER U107:ZN
*CELL OR2_X1
*C2_R1_C1 1.157e+00 6.236e-03 1.157e+00 
*LOADS
*RC U106:A2 1.443e-02
*END

*R_NET n64 2.187e+00
*DRIVER U101:ZN
*CELL NAND2_X1
*C2_R1_C1 1.093e+00 6.236e-03 1.093e+00 
*LOADS
*RC U100:A1 1.364e-02
*END

*R_NET n65 2.314e+00
*DRIVER U102:ZN
*CELL NAND2_X1
*C2_R1_C1 1.157e+00 6.236e-03 1.157e+00 
*LOADS
*RC U100:A2 1.443e-02
*END

*R_NET n66 2.314e+00
*DRIVER U103:ZN
*CELL OR2_X1
*C2_R1_C1 1.157e+00 6.236e-03 1.157e+00 
*LOADS
*RC U102:A2 1.443e-02
*END

*R_NET n67 2.187e+00
*DRIVER U97:ZN
*CELL NAND2_X1
*C2_R1_C1 1.093e+00 6.236e-03 1.093e+00 
*LOADS
*RC U96:A1 1.364e-02
*END

*R_NET n68 2.314e+00
*DRIVER U98:ZN
*CELL NAND2_X1
*C2_R1_C1 1.157e+00 6.236e-03 1.157e+00 
*LOADS
*RC U96:A2 1.443e-02
*END

*R_NET n69 2.314e+00
*DRIVER U99:ZN
*CELL OR2_X1
*C2_R1_C1 1.157e+00 6.236e-03 1.157e+00 
*LOADS
*RC U98:A2 1.443e-02
*END

*R_NET n70 2.187e+00
*DRIVER U93:ZN
*CELL NAND2_X1
*C2_R1_C1 1.093e+00 6.236e-03 1.093e+00 
*LOADS
*RC U92:A1 1.364e-02
*END

*R_NET n71 2.314e+00
*DRIVER U94:ZN
*CELL NAND2_X1
*C2_R1_C1 1.157e+00 6.236e-03 1.157e+00 
*LOADS
*RC U92:A2 1.443e-02
*END

*R_NET n72 2.314e+00
*DRIVER U95:ZN
*CELL OR2_X1
*C2_R1_C1 1.157e+00 6.236e-03 1.157e+00 
*LOADS
*RC U94:A2 1.443e-02
*END

*R_NET n73 2.187e+00
*DRIVER U89:ZN
*CELL NAND2_X1
*C2_R1_C1 1.093e+00 6.236e-03 1.093e+00 
*LOADS
*RC U88:A1 1.364e-02
*END

*R_NET n74 2.314e+00
*DRIVER U90:ZN
*CELL NAND3_X1
*C2_R1_C1 1.157e+00 6.236e-03 1.157e+00 
*LOADS
*RC U88:A2 1.443e-02
*END

*R_NET n75 2.203e+00
*DRIVER U91:ZN
*CELL OR2_X1
*C2_R1_C1 1.102e+00 6.236e-03 1.102e+00 
*LOADS
*RC U90:A2 1.374e-02
*END
