*SPEF "IEEE 1481-1999"
*DESIGN "underdesigned_multiplier8"
*DATE "Mon Sep  7 22:47:16 2020"
*VENDOR "SYNOPSYS INC"
*PROGRAM "Synopsys Design Compiler cmos"
*VERSION "N-2017.09-SP3"
*DESIGN_FLOW "SYNTHESIS"
*DIVIDER /
*DELIMITER :
*BUS_DELIMITER []
*T_UNIT 1.0 NS
*C_UNIT 0.0010 PF
*R_UNIT 1000.0 KOHM
*L_UNIT 1.0 HENRY

*PORTS

op1_i\[7\] I *L 0.000e+00 *S 0.000e+00 0.000e+00 
op1_i\[6\] I *L 0.000e+00 *S 0.000e+00 0.000e+00 
op1_i\[5\] I *L 0.000e+00 *S 0.000e+00 0.000e+00 
op1_i\[4\] I *L 0.000e+00 *S 0.000e+00 0.000e+00 
op1_i\[3\] I *L 0.000e+00 *S 0.000e+00 0.000e+00 
op1_i\[2\] I *L 0.000e+00 *S 0.000e+00 0.000e+00 
op1_i\[1\] I *L 0.000e+00 *S 0.000e+00 0.000e+00 
op1_i\[0\] I *L 0.000e+00 *S 0.000e+00 0.000e+00 
op2_i\[7\] I *L 0.000e+00 *S 0.000e+00 0.000e+00 
op2_i\[6\] I *L 0.000e+00 *S 0.000e+00 0.000e+00 
op2_i\[5\] I *L 0.000e+00 *S 0.000e+00 0.000e+00 
op2_i\[4\] I *L 0.000e+00 *S 0.000e+00 0.000e+00 
op2_i\[3\] I *L 0.000e+00 *S 0.000e+00 0.000e+00 
op2_i\[2\] I *L 0.000e+00 *S 0.000e+00 0.000e+00 
op2_i\[1\] I *L 0.000e+00 *S 0.000e+00 0.000e+00 
op2_i\[0\] I *L 0.000e+00 *S 0.000e+00 0.000e+00 
product_o\[15\] O *L 1.000e-01 *S 1.851e-03 1.752e-03 
product_o\[14\] O *L 1.000e-01 *S 2.700e-03 1.836e-03 
product_o\[13\] O *L 1.000e-01 *S 2.700e-03 1.836e-03 
product_o\[12\] O *L 1.000e-01 *S 2.700e-03 1.836e-03 
product_o\[11\] O *L 1.000e-01 *S 2.700e-03 1.836e-03 
product_o\[10\] O *L 1.000e-01 *S 2.700e-03 1.836e-03 
product_o\[9\] O *L 1.000e-01 *S 2.769e-03 1.850e-03 
product_o\[8\] O *L 1.000e-01 *S 2.769e-03 1.850e-03 
product_o\[7\] O *L 1.000e-01 *S 2.769e-03 1.850e-03 
product_o\[6\] O *L 1.000e-01 *S 2.700e-03 1.836e-03 
product_o\[5\] O *L 1.000e-01 *S 2.769e-03 1.850e-03 
product_o\[4\] O *L 1.000e-01 *S 2.700e-03 1.836e-03 
product_o\[3\] O *L 1.000e-01 *S 2.769e-03 1.850e-03 
product_o\[2\] O *L 1.000e-01 *S 2.700e-03 1.836e-03 
product_o\[1\] O *L 1.000e-01 *S 1.851e-03 1.752e-03 
product_o\[0\] O *L 1.000e-01 *S 2.946e-03 1.653e-03 

*R_NET op1_i\[7\] 1.904e+01
*DRIVER op1_i\[7\]
*CELL NULL
*C2_R1_C1 9.519e+00 8.097e-02 9.519e+00 
*LOADS
*RC U593:A1 2.409e-02
*RC U602:A1 2.409e-02
*RC U619:A1 2.409e-02
*RC U620:A1 2.409e-02
*RC U627:A1 2.409e-02
*RC U633:A1 2.409e-02
*RC U639:A1 2.409e-02
*RC U662:A1 2.409e-02
*END

*R_NET op1_i\[6\] 1.944e+01
*DRIVER op1_i\[6\]
*CELL NULL
*C2_R1_C1 9.722e+00 8.097e-02 9.722e+00 
*LOADS
*RC U598:A1 2.409e-02
*RC U600:A 2.581e-02
*RC U601:A3 2.517e-02
*RC U628:A1 2.409e-02
*RC U634:A1 2.409e-02
*RC U640:A1 2.409e-02
*RC U653:A1 2.409e-02
*RC U663:A2 2.538e-02
*END

*R_NET op1_i\[5\] 1.955e+01
*DRIVER op1_i\[5\]
*CELL NULL
*C2_R1_C1 9.774e+00 8.097e-02 9.774e+00 
*LOADS
*RC U605:A2 2.538e-02
*RC U606:A2 2.538e-02
*RC U614:A2 2.538e-02
*RC U617:A1 2.409e-02
*RC U618:A1 2.409e-02
*RC U642:A1 2.409e-02
*RC U649:A2 2.538e-02
*RC U659:A1 2.409e-02
*END

*R_NET op1_i\[4\] 2.384e+01
*DRIVER op1_i\[4\]
*CELL NULL
*C2_R1_C1 1.192e+01 9.378e-02 1.192e+01 
*LOADS
*RC U581:A1 2.159e-02
*RC U582:A1 2.159e-02
*RC U592:A1 2.197e-02
*RC U597:A2 2.317e-02
*RC U599:A2 2.317e-02
*RC U615:A2 2.317e-02
*RC U643:A1 2.197e-02
*RC U647:A2 2.317e-02
*RC U650:A1 2.197e-02
*RC U660:A1 2.197e-02
*END

*R_NET op1_i\[3\] 1.836e+01
*DRIVER op1_i\[3\]
*CELL NULL
*C2_R1_C1 9.180e+00 8.097e-02 9.180e+00 
*LOADS
*RC U588:A2 2.538e-02
*RC U603:A2 2.538e-02
*RC U616:A2 2.538e-02
*RC U624:A2 2.538e-02
*RC U630:A2 2.538e-02
*RC U636:A2 2.538e-02
*RC U655:A2 1.678e-02
*RC U656:A2 1.678e-02
*END

*R_NET op1_i\[2\] 1.712e+01
*DRIVER op1_i\[2\]
*CELL NULL
*C2_R1_C1 8.561e+00 6.648e-02 8.561e+00 
*LOADS
*RC U586:A 2.393e-02
*RC U589:A1 2.231e-02
*RC U590:A2 2.352e-02
*RC U625:A1 2.231e-02
*RC U631:A2 2.352e-02
*RC U637:A2 2.352e-02
*RC U646:A2 2.352e-02
*END

*R_NET op1_i\[1\] 2.132e+01
*DRIVER op1_i\[1\]
*CELL NULL
*C2_R1_C1 1.066e+01 9.102e-02 1.066e+01 
*LOADS
*RC U584:A2 2.535e-02
*RC U604:A2 2.535e-02
*RC U608:A2 2.535e-02
*RC U611:A2 2.535e-02
*RC U644:A1 2.406e-02
*RC U645:A2 2.535e-02
*RC U654:A1 1.535e-02
*RC U665:A1 2.406e-02
*RC U668:A2 2.535e-02
*END

*R_NET op1_i\[0\] 1.445e+01
*DRIVER op1_i\[0\]
*CELL NULL
*C2_R1_C1 7.223e+00 5.299e-02 7.223e+00 
*LOADS
*RC U579:A 2.196e-02
*RC U585:A1 2.045e-02
*RC U591:A2 2.158e-02
*RC U609:A1 2.045e-02
*RC U612:A2 2.158e-02
*RC U667:A2 2.158e-02
*END

*R_NET op2_i\[7\] 1.917e+01
*DRIVER op2_i\[7\]
*CELL NULL
*C2_R1_C1 9.583e+00 8.097e-02 9.583e+00 
*LOADS
*RC U593:A2 2.538e-02
*RC U604:A1 2.409e-02
*RC U606:A1 2.409e-02
*RC U612:A1 2.409e-02
*RC U615:A1 2.409e-02
*RC U616:A1 2.409e-02
*RC U637:A1 2.409e-02
*RC U663:A1 2.409e-02
*END

*R_NET op2_i\[6\] 1.946e+01
*DRIVER op2_i\[6\]
*CELL NULL
*C2_R1_C1 9.732e+00 8.097e-02 9.732e+00 
*LOADS
*RC U591:A1 2.409e-02
*RC U611:A1 2.409e-02
*RC U614:A1 2.409e-02
*RC U621:A 2.581e-02
*RC U636:A1 2.409e-02
*RC U647:A1 2.409e-02
*RC U653:A2 2.538e-02
*RC U662:A2 2.538e-02
*END

*R_NET op2_i\[5\] 1.980e+01
*DRIVER op2_i\[5\]
*CELL NULL
*C2_R1_C1 9.902e+00 8.097e-02 9.902e+00 
*LOADS
*RC U585:A2 2.538e-02
*RC U603:A1 2.409e-02
*RC U617:A2 2.538e-02
*RC U620:A2 2.538e-02
*RC U625:A2 2.538e-02
*RC U640:A2 2.538e-02
*RC U643:A2 2.538e-02
*RC U645:A1 2.409e-02
*END

*R_NET op2_i\[4\] 1.445e+01
*DRIVER op2_i\[4\]
*CELL NULL
*C2_R1_C1 7.223e+00 5.299e-02 7.223e+00 
*LOADS
*RC U580:A 2.196e-02
*RC U584:A1 2.045e-02
*RC U592:A2 2.158e-02
*RC U624:A1 2.045e-02
*RC U639:A2 2.158e-02
*RC U642:A2 2.158e-02
*END

*R_NET op2_i\[3\] 1.915e+01
*DRIVER op2_i\[3\]
*CELL NULL
*C2_R1_C1 9.574e+00 8.097e-02 9.574e+00 
*LOADS
*RC U589:A2 2.538e-02
*RC U602:A2 2.538e-02
*RC U609:A2 2.538e-02
*RC U618:A2 2.538e-02
*RC U634:A2 2.538e-02
*RC U644:A2 2.538e-02
*RC U655:A1 1.616e-02
*RC U660:A2 2.538e-02
*END

*R_NET op2_i\[2\] 2.395e+01
*DRIVER op2_i\[2\]
*CELL NULL
*C2_R1_C1 1.197e+01 9.378e-02 1.197e+01 
*LOADS
*RC U582:A2 2.213e-02
*RC U588:A1 2.197e-02
*RC U590:A1 2.197e-02
*RC U597:A1 2.197e-02
*RC U598:A2 2.317e-02
*RC U601:A1 2.159e-02
*RC U608:A1 2.197e-02
*RC U633:A2 2.317e-02
*RC U657:A 2.357e-02
*RC U659:A2 2.317e-02
*END

*R_NET op2_i\[1\] 2.041e+01
*DRIVER op2_i\[1\]
*CELL NULL
*C2_R1_C1 1.020e+01 9.102e-02 1.020e+01 
*LOADS
*RC U605:A1 2.406e-02
*RC U619:A2 2.535e-02
*RC U628:A2 2.535e-02
*RC U631:A1 2.406e-02
*RC U650:A2 2.535e-02
*RC U654:A3 1.666e-02
*RC U656:A1 1.614e-02
*RC U665:A2 2.535e-02
*RC U667:A1 2.406e-02
*END

*R_NET op2_i\[0\] 1.944e+01
*DRIVER op2_i\[0\]
*CELL NULL
*C2_R1_C1 9.722e+00 8.097e-02 9.722e+00 
*LOADS
*RC U581:A3 2.517e-02
*RC U599:A1 2.409e-02
*RC U622:A 2.581e-02
*RC U627:A2 2.538e-02
*RC U630:A1 2.409e-02
*RC U646:A1 2.409e-02
*RC U649:A1 2.409e-02
*RC U668:A1 2.409e-02
*END

*R_NET product_o\[15\] 4.097e-01
*DRIVER U495:ZN
*CELL NAND2_X1
*C2_R1_C1 2.049e-01 6.236e-03 2.049e-01 
*LOADS
*RC product_o\[15\] 2.555e-03
*END

*R_NET product_o\[14\] 4.097e-01
*DRIVER U485:ZN
*CELL XNOR2_X1
*C2_R1_C1 2.049e-01 6.236e-03 2.049e-01 
*LOADS
*RC product_o\[14\] 2.555e-03
*END

*R_NET product_o\[13\] 4.097e-01
*DRIVER U370:ZN
*CELL XNOR2_X1
*C2_R1_C1 2.049e-01 6.236e-03 2.049e-01 
*LOADS
*RC product_o\[13\] 2.555e-03
*END

*R_NET product_o\[12\] 4.097e-01
*DRIVER U444:ZN
*CELL XNOR2_X1
*C2_R1_C1 2.049e-01 6.236e-03 2.049e-01 
*LOADS
*RC product_o\[12\] 2.555e-03
*END

*R_NET product_o\[11\] 4.097e-01
*DRIVER U362:ZN
*CELL XNOR2_X1
*C2_R1_C1 2.049e-01 6.236e-03 2.049e-01 
*LOADS
*RC product_o\[11\] 2.555e-03
*END

*R_NET product_o\[10\] 4.097e-01
*DRIVER U360:ZN
*CELL XNOR2_X1
*C2_R1_C1 2.049e-01 6.236e-03 2.049e-01 
*LOADS
*RC product_o\[10\] 2.555e-03
*END

*R_NET product_o\[9\] 4.097e-01
*DRIVER U310:Z
*CELL XOR2_X1
*C2_R1_C1 2.049e-01 6.236e-03 2.049e-01 
*LOADS
*RC product_o\[9\] 2.555e-03
*END

*R_NET product_o\[8\] 4.097e-01
*DRIVER U311:Z
*CELL XOR2_X1
*C2_R1_C1 2.049e-01 6.236e-03 2.049e-01 
*LOADS
*RC product_o\[8\] 2.555e-03
*END

*R_NET product_o\[7\] 4.097e-01
*DRIVER U388:Z
*CELL XOR2_X1
*C2_R1_C1 2.049e-01 6.236e-03 2.049e-01 
*LOADS
*RC product_o\[7\] 2.555e-03
*END

*R_NET product_o\[6\] 4.097e-01
*DRIVER U438:ZN
*CELL XNOR2_X1
*C2_R1_C1 2.049e-01 6.236e-03 2.049e-01 
*LOADS
*RC product_o\[6\] 2.555e-03
*END

*R_NET product_o\[5\] 4.097e-01
*DRIVER U314:Z
*CELL XOR2_X1
*C2_R1_C1 2.049e-01 6.236e-03 2.049e-01 
*LOADS
*RC product_o\[5\] 2.555e-03
*END

*R_NET product_o\[4\] 4.097e-01
*DRIVER U576:ZN
*CELL XNOR2_X1
*C2_R1_C1 2.049e-01 6.236e-03 2.049e-01 
*LOADS
*RC product_o\[4\] 2.555e-03
*END

*R_NET product_o\[3\] 4.097e-01
*DRIVER U315:Z
*CELL XOR2_X1
*C2_R1_C1 2.049e-01 6.236e-03 2.049e-01 
*LOADS
*RC product_o\[3\] 2.555e-03
*END

*R_NET product_o\[2\] 4.097e-01
*DRIVER U664:ZN
*CELL XNOR2_X1
*C2_R1_C1 2.049e-01 6.236e-03 2.049e-01 
*LOADS
*RC product_o\[2\] 2.555e-03
*END

*R_NET product_o\[1\] 4.097e-01
*DRIVER U666:ZN
*CELL NAND2_X1
*C2_R1_C1 2.049e-01 6.236e-03 2.049e-01 
*LOADS
*RC product_o\[1\] 2.555e-03
*END

*R_NET product_o\[0\] 4.097e-01
*DRIVER U578:ZN
*CELL NOR2_X1
*C2_R1_C1 2.049e-01 6.236e-03 2.049e-01 
*LOADS
*RC product_o\[0\] 2.555e-03
*END

*R_NET n143 4.541e+00
*DRIVER U449:ZN
*CELL INV_X1
*C2_R1_C1 2.271e+00 1.407e-02 2.271e+00 
*LOADS
*RC U371:A2 1.628e-02
*RC U378:A1 1.566e-02
*END

*R_NET n144 2.294e+00
*DRIVER U519:ZN
*CELL INV_X1
*C2_R1_C1 1.147e+00 6.236e-03 1.147e+00 
*LOADS
*RC U518:A3 1.430e-02
*END

*R_NET n145 2.294e+00
*DRIVER U432:ZN
*CELL INV_X1
*C2_R1_C1 1.147e+00 6.236e-03 1.147e+00 
*LOADS
*RC U431:A3 1.430e-02
*END

*R_NET n146 2.413e+00
*DRIVER U595:ZN
*CELL INV_X1
*C2_R1_C1 1.206e+00 6.236e-03 1.206e+00 
*LOADS
*RC U594:A1 1.504e-02
*END

*R_NET n147 2.294e+00
*DRIVER U434:ZN
*CELL INV_X1
*C2_R1_C1 1.147e+00 6.236e-03 1.147e+00 
*LOADS
*RC U433:A3 1.430e-02
*END

*R_NET n148 2.294e+00
*DRIVER U398:ZN
*CELL INV_X1
*C2_R1_C1 1.147e+00 6.236e-03 1.147e+00 
*LOADS
*RC U397:A3 1.430e-02
*END

*R_NET n149 2.294e+00
*DRIVER U368:ZN
*CELL INV_X1
*C2_R1_C1 1.147e+00 6.236e-03 1.147e+00 
*LOADS
*RC U367:A3 1.430e-02
*END

*R_NET n150 2.314e+00
*DRIVER U424:ZN
*CELL INV_X1
*C2_R1_C1 1.157e+00 6.236e-03 1.157e+00 
*LOADS
*RC U422:A2 1.443e-02
*END

*R_NET n151 1.154e+01
*DRIVER U600:ZN
*CELL INV_X1
*C2_R1_C1 5.769e+00 4.254e-02 5.769e+00 
*LOADS
*RC U456:A1 2.203e-02
*RC U500:A1 2.203e-02
*RC U510:A2 2.032e-02
*RC U523:A2 2.032e-02
*RC U574:A1 1.348e-02
*END

*R_NET n152 7.217e+00
*DRIVER U586:ZN
*CELL INV_X1
*C2_R1_C1 3.608e+00 2.308e-02 3.608e+00 
*LOADS
*RC U457:A2 1.834e-02
*RC U468:A2 1.806e-02
*RC U517:A1 1.912e-02
*END

*R_NET n153 1.262e+01
*DRIVER U579:ZN
*CELL INV_X1
*C2_R1_C1 6.308e+00 4.254e-02 6.308e+00 
*LOADS
*RC U455:A1 2.203e-02
*RC U463:A1 2.149e-02
*RC U501:A1 2.203e-02
*RC U515:A2 2.032e-02
*RC U578:A1 2.149e-02
*END

*R_NET n154 6.395e+00
*DRIVER U621:ZN
*CELL INV_X1
*C2_R1_C1 3.198e+00 2.308e-02 3.198e+00 
*LOADS
*RC U457:A1 1.960e-02
*RC U517:A2 1.806e-02
*RC U574:A2 1.154e-02
*END

*R_NET n155 1.221e+01
*DRIVER U580:ZN
*CELL INV_X1
*C2_R1_C1 6.107e+00 4.254e-02 6.107e+00 
*LOADS
*RC U455:A3 2.000e-02
*RC U463:A2 2.032e-02
*RC U468:A1 2.149e-02
*RC U500:A2 2.063e-02
*RC U510:A1 2.149e-02
*END

*R_NET n156 4.804e+00
*DRIVER U657:ZN
*CELL INV_X1
*C2_R1_C1 2.402e+00 1.407e-02 2.402e+00 
*LOADS
*RC U501:A2 1.654e-02
*RC U515:A1 1.725e-02
*END

*R_NET n157 7.217e+00
*DRIVER U622:ZN
*CELL INV_X1
*C2_R1_C1 3.608e+00 2.308e-02 3.608e+00 
*LOADS
*RC U456:A2 1.834e-02
*RC U523:A1 1.912e-02
*RC U578:A2 1.806e-02
*END

*R_NET n158 4.625e+00
*DRIVER U374:ZN
*CELL NAND2_X1
*C2_R1_C1 2.313e+00 1.407e-02 2.313e+00 
*LOADS
*RC U356:A2 1.058e-02
*RC U310:A 2.195e-02
*END

*R_NET n159 4.866e+00
*DRIVER U342:Z
*CELL XOR2_X1
*C2_R1_C1 2.433e+00 1.407e-02 2.433e+00 
*LOADS
*RC U356:A1 1.015e-02
*RC U310:B 2.408e-02
*END

*R_NET n160 3.081e+00
*DRIVER U312:Z
*CELL XOR2_X1
*C2_R1_C1 1.541e+00 6.236e-03 1.541e+00 
*LOADS
*RC U311:A 1.921e-02
*END

*R_NET n161 5.649e+00
*DRIVER U415:ZN
*CELL AND2_X1
*C2_R1_C1 2.825e+00 1.407e-02 2.825e+00 
*LOADS
*RC U376:A1 1.566e-02
*RC U311:B 2.408e-02
*END

*R_NET n162 5.475e+00
*DRIVER U372:ZN
*CELL NAND2_X1
*C2_R1_C1 2.737e+00 1.407e-02 2.737e+00 
*LOADS
*RC U376:A2 1.656e-02
*RC U312:A 2.195e-02
*END

*R_NET n163 5.649e+00
*DRIVER U380:ZN
*CELL AND2_X1
*C2_R1_C1 2.825e+00 1.407e-02 2.825e+00 
*LOADS
*RC U375:A1 1.566e-02
*RC U312:B 2.408e-02
*END

*R_NET n164 5.347e+00
*DRIVER U393:ZN
*CELL XNOR2_X1
*C2_R1_C1 2.674e+00 1.407e-02 2.674e+00 
*LOADS
*RC U372:A1 1.566e-02
*RC U388:A 2.195e-02
*END

*R_NET n166 4.453e+00
*DRIVER U396:ZN
*CELL NAND3_X1
*C2_R1_C1 2.226e+00 1.407e-02 2.226e+00 
*LOADS
*RC U373:A1 1.566e-02
*RC U389:A1 1.566e-02
*END

*R_NET n167 4.708e+00
*DRIVER U369:ZN
*CELL NAND2_X1
*C2_R1_C1 2.354e+00 1.407e-02 2.354e+00 
*LOADS
*RC U373:A2 1.656e-02
*RC U389:A2 1.656e-02
*END

*R_NET n169 5.495e+00
*DRIVER U328:Z
*CELL XOR2_X1
*C2_R1_C1 2.747e+00 1.407e-02 2.747e+00 
*LOADS
*RC U396:A2 1.578e-02
*RC U438:B 2.296e-02
*END

*R_NET n170 7.924e+00
*DRIVER U330:Z
*CELL XOR2_X1
*C2_R1_C1 3.962e+00 2.308e-02 3.962e+00 
*LOADS
*RC U396:A1 1.707e-02
*RC U439:A1 1.738e-02
*RC U314:B 2.659e-02
*END

*R_NET n171 7.906e+00
*DRIVER U573:ZN
*CELL AND3_X1
*C2_R1_C1 3.953e+00 2.308e-02 3.953e+00 
*LOADS
*RC U396:A3 1.820e-02
*RC U439:A2 1.836e-02
*RC U314:A 2.426e-02
*END

*R_NET n172 4.511e+00
*DRIVER U512:ZN
*CELL NOR2_X1
*C2_R1_C1 2.256e+00 1.407e-02 2.256e+00 
*LOADS
*RC U573:A1 9.605e-03
*RC U576:A 2.213e-02
*END

*R_NET n173 3.224e+00
*DRIVER U577:ZN
*CELL NAND2_X1
*C2_R1_C1 1.612e+00 6.236e-03 1.612e+00 
*LOADS
*RC U576:B 2.010e-02
*END

*R_NET n174 6.940e+00
*DRIVER U654:ZN
*CELL AND3_X1
*C2_R1_C1 3.470e+00 2.308e-02 3.470e+00 
*LOADS
*RC U573:A3 1.175e-02
*RC U577:A1 1.738e-02
*RC U315:A 2.426e-02
*END

*R_NET n175 7.306e+00
*DRIVER U503:ZN
*CELL XNOR2_X1
*C2_R1_C1 3.653e+00 2.308e-02 3.653e+00 
*LOADS
*RC U573:A2 1.126e-02
*RC U577:A2 1.836e-02
*RC U315:B 2.659e-02
*END

*R_NET n177 4.682e+00
*DRIVER U514:ZN
*CELL XNOR2_X1
*C2_R1_C1 2.341e+00 1.407e-02 2.341e+00 
*LOADS
*RC U654:A2 1.006e-02
*RC U664:B 2.296e-02
*END

*R_NET n178 2.187e+00
*DRIVER U668:ZN
*CELL NAND2_X1
*C2_R1_C1 1.093e+00 6.236e-03 1.093e+00 
*LOADS
*RC U666:A1 1.364e-02
*END

*R_NET n179 2.314e+00
*DRIVER U667:ZN
*CELL NAND2_X1
*C2_R1_C1 1.157e+00 6.236e-03 1.157e+00 
*LOADS
*RC U666:A2 1.443e-02
*END

*R_NET n180 2.187e+00
*DRIVER U497:ZN
*CELL NAND2_X1
*C2_R1_C1 1.093e+00 6.236e-03 1.093e+00 
*LOADS
*RC U495:A1 1.364e-02
*END

*R_NET n181 2.314e+00
*DRIVER U496:ZN
*CELL NAND2_X1
*C2_R1_C1 1.157e+00 6.236e-03 1.157e+00 
*LOADS
*RC U495:A2 1.443e-02
*END

*R_NET n182 7.092e+00
*DRIVER U429:ZN
*CELL NOR2_X1
*C2_R1_C1 3.546e+00 2.308e-02 3.546e+00 
*LOADS
*RC U427:A1 1.912e-02
*RC U486:A2 1.806e-02
*RC U496:A1 1.738e-02
*END

*R_NET n183 7.930e+00
*DRIVER U318:Z
*CELL XOR2_X1
*C2_R1_C1 3.965e+00 2.308e-02 3.965e+00 
*LOADS
*RC U485:B 2.536e-02
*RC U497:A1 1.738e-02
*RC U496:A2 1.836e-02
*END

*R_NET n184 4.806e+00
*DRIVER U377:ZN
*CELL NAND2_X1
*C2_R1_C1 2.403e+00 1.407e-02 2.403e+00 
*LOADS
*RC U486:A1 1.725e-02
*RC U497:A2 1.656e-02
*END

*R_NET n186 3.081e+00
*DRIVER U593:ZN
*CELL NAND2_X1
*C2_R1_C1 1.541e+00 6.236e-03 1.541e+00 
*LOADS
*RC U318:A 1.921e-02
*END

*R_NET n187 3.383e+00
*DRIVER U594:ZN
*CELL NOR2_X1
*C2_R1_C1 1.692e+00 6.236e-03 1.692e+00 
*LOADS
*RC U318:B 2.110e-02
*END

*R_NET n188 2.275e+00
*DRIVER U555:ZN
*CELL NOR2_X1
*C2_R1_C1 1.138e+00 6.236e-03 1.138e+00 
*LOADS
*RC U594:A2 1.419e-02
*END

*R_NET n189 5.704e+00
*DRIVER U661:ZN
*CELL AND2_X1
*C2_R1_C1 2.852e+00 1.407e-02 2.852e+00 
*LOADS
*RC U521:B 2.296e-02
*RC U555:A1 1.725e-02
*END

*R_NET n190 5.461e+00
*DRIVER U556:ZN
*CELL NAND2_X1
*C2_R1_C1 2.730e+00 1.407e-02 2.730e+00 
*LOADS
*RC U521:A 2.213e-02
*RC U555:A2 1.628e-02
*END

*R_NET n191 7.076e+00
*DRIVER U433:ZN
*CELL NAND3_X1
*C2_R1_C1 3.538e+00 2.308e-02 3.538e+00 
*LOADS
*RC U446:A1 1.738e-02
*RC U556:A2 1.836e-02
*RC U595:A 1.869e-02
*END

*R_NET n192 2.187e+00
*DRIVER U378:ZN
*CELL NAND2_X1
*C2_R1_C1 1.093e+00 6.236e-03 1.093e+00 
*LOADS
*RC U377:A1 1.364e-02
*END

*R_NET n193 2.314e+00
*DRIVER U379:ZN
*CELL NAND2_X1
*C2_R1_C1 1.157e+00 6.236e-03 1.157e+00 
*LOADS
*RC U377:A2 1.443e-02
*END

*R_NET n194 7.930e+00
*DRIVER U427:ZN
*CELL NOR2_X1
*C2_R1_C1 3.965e+00 2.308e-02 3.965e+00 
*LOADS
*RC U370:B 2.536e-02
*RC U379:A1 1.738e-02
*RC U378:A2 1.836e-02
*END

*R_NET n195 4.806e+00
*DRIVER U418:ZN
*CELL NAND2_X1
*C2_R1_C1 2.403e+00 1.407e-02 2.403e+00 
*LOADS
*RC U371:A1 1.725e-02
*RC U379:A2 1.656e-02
*END

*R_NET n197 2.275e+00
*DRIVER U428:ZN
*CELL AND2_X1
*C2_R1_C1 1.138e+00 6.236e-03 1.138e+00 
*LOADS
*RC U427:A2 1.419e-02
*END

*R_NET n198 3.758e+00
*DRIVER U451:ZN
*CELL AND2_X1
*C2_R1_C1 1.879e+00 1.407e-02 1.879e+00 
*LOADS
*RC U428:A1 1.015e-02
*RC U429:A2 1.628e-02
*END

*R_NET n199 3.957e+00
*DRIVER U521:ZN
*CELL XNOR2_X1
*C2_R1_C1 1.978e+00 1.407e-02 1.978e+00 
*LOADS
*RC U428:A2 1.058e-02
*RC U429:A1 1.725e-02
*END

*R_NET n200 3.670e+00
*DRIVER U431:ZN
*CELL NAND3_X1
*C2_R1_C1 1.835e+00 1.407e-02 1.835e+00 
*LOADS
*RC U440:A1 1.566e-02
*RC U451:A1 1.015e-02
*END

*R_NET n201 3.731e+00
*DRIVER U574:ZN
*CELL OR3_X1
*C2_R1_C1 1.865e+00 1.407e-02 1.865e+00 
*LOADS
*RC U451:A2 1.058e-02
*RC U651:A1 1.566e-02
*END

*R_NET n202 1.404e+00
*DRIVER U662:ZN
*CELL NAND2_X1
*C2_R1_C1 7.019e-01 6.236e-03 7.019e-01 
*LOADS
*RC U661:A1 8.754e-03
*END

*R_NET n203 1.465e+00
*DRIVER U663:ZN
*CELL NAND2_X1
*C2_R1_C1 7.324e-01 6.236e-03 7.324e-01 
*LOADS
*RC U661:A2 9.134e-03
*END

*R_NET n204 2.187e+00
*DRIVER U557:ZN
*CELL NAND2_X1
*C2_R1_C1 1.093e+00 6.236e-03 1.093e+00 
*LOADS
*RC U556:A1 1.364e-02
*END

*R_NET n205 2.187e+00
*DRIVER U558:ZN
*CELL OR2_X1
*C2_R1_C1 1.093e+00 6.236e-03 1.093e+00 
*LOADS
*RC U557:A1 1.364e-02
*END

*R_NET n206 2.314e+00
*DRIVER U559:ZN
*CELL NAND2_X1
*C2_R1_C1 1.157e+00 6.236e-03 1.157e+00 
*LOADS
*RC U557:A2 1.443e-02
*END

*R_NET n207 2.187e+00
*DRIVER U575:ZN
*CELL NAND2_X1
*C2_R1_C1 1.093e+00 6.236e-03 1.093e+00 
*LOADS
*RC U559:A1 1.364e-02
*END

*R_NET n208 5.777e+00
*DRIVER U569:ZN
*CELL NAND2_X1
*C2_R1_C1 2.888e+00 1.407e-02 2.888e+00 
*LOADS
*RC U559:A2 1.656e-02
*RC U321:B 2.408e-02
*END

*R_NET n209 7.041e+00
*DRIVER U620:ZN
*CELL NAND2_X1
*C2_R1_C1 3.521e+00 2.308e-02 3.521e+00 
*LOADS
*RC U502:B 2.536e-02
*RC U558:A2 1.152e-02
*RC U575:A1 1.738e-02
*END

*R_NET n210 7.092e+00
*DRIVER U606:ZN
*CELL NAND2_X1
*C2_R1_C1 3.546e+00 2.308e-02 3.546e+00 
*LOADS
*RC U502:A 2.446e-02
*RC U558:A1 1.175e-02
*RC U575:A2 1.836e-02
*END

*R_NET n211 3.841e+00
*DRIVER U518:ZN
*CELL NAND3_X1
*C2_R1_C1 1.920e+00 1.407e-02 1.920e+00 
*LOADS
*RC U449:A 1.686e-02
*RC U552:A1 1.015e-02
*END

*R_NET n212 2.187e+00
*DRIVER U419:ZN
*CELL NAND2_X1
*C2_R1_C1 1.093e+00 6.236e-03 1.093e+00 
*LOADS
*RC U418:A1 1.364e-02
*END

*R_NET n213 2.314e+00
*DRIVER U420:ZN
*CELL NAND2_X1
*C2_R1_C1 1.157e+00 6.236e-03 1.157e+00 
*LOADS
*RC U418:A2 1.443e-02
*END

*R_NET n214 7.930e+00
*DRIVER U552:ZN
*CELL AND2_X1
*C2_R1_C1 3.965e+00 2.308e-02 3.965e+00 
*LOADS
*RC U420:A1 1.738e-02
*RC U419:A2 1.836e-02
*RC U444:B 2.536e-02
*END

*R_NET n215 4.806e+00
*DRIVER U353:ZN
*CELL NAND2_X1
*C2_R1_C1 2.403e+00 1.407e-02 2.403e+00 
*LOADS
*RC U420:A2 1.656e-02
*RC U445:A1 1.725e-02
*END

*R_NET n216 7.092e+00
*DRIVER U385:ZN
*CELL NOR2_X1
*C2_R1_C1 3.546e+00 2.308e-02 3.546e+00 
*LOADS
*RC U383:A1 1.912e-02
*RC U419:A1 1.738e-02
*RC U445:A2 1.806e-02
*END

*R_NET n218 1.465e+00
*DRIVER U553:ZN
*CELL NAND2_X1
*C2_R1_C1 7.324e-01 6.236e-03 7.324e-01 
*LOADS
*RC U552:A2 9.134e-03
*END

*R_NET n219 2.187e+00
*DRIVER U554:ZN
*CELL NAND2_X1
*C2_R1_C1 1.093e+00 6.236e-03 1.093e+00 
*LOADS
*RC U553:A1 1.364e-02
*END

*R_NET n220 4.751e+00
*DRIVER U651:ZN
*CELL NAND2_X1
*C2_R1_C1 2.375e+00 1.407e-02 2.375e+00 
*LOADS
*RC U519:A 1.686e-02
*RC U553:A2 1.656e-02
*END

*R_NET n221 7.752e+00
*DRIVER U323:Z
*CELL XOR2_X1
*C2_R1_C1 3.876e+00 2.308e-02 3.876e+00 
*LOADS
*RC U386:B 2.536e-02
*RC U518:A1 1.707e-02
*RC U554:A1 1.738e-02
*END

*R_NET n222 7.841e+00
*DRIVER U435:ZN
*CELL NAND2_X1
*C2_R1_C1 3.920e+00 2.308e-02 3.920e+00 
*LOADS
*RC U386:A 2.446e-02
*RC U518:A2 1.751e-02
*RC U554:A2 1.836e-02
*END

*R_NET n223 2.314e+00
*DRIVER U652:ZN
*CELL NAND2_X1
*C2_R1_C1 1.157e+00 6.236e-03 1.157e+00 
*LOADS
*RC U651:A2 1.443e-02
*END

*R_NET n224 2.187e+00
*DRIVER U653:ZN
*CELL NAND2_X1
*C2_R1_C1 1.093e+00 6.236e-03 1.093e+00 
*LOADS
*RC U652:A1 1.364e-02
*END

*R_NET n225 3.790e+00
*DRIVER U440:ZN
*CELL NAND2_X1
*C2_R1_C1 1.895e+00 1.407e-02 1.895e+00 
*LOADS
*RC U574:A3 1.010e-02
*RC U652:A2 1.656e-02
*END

*R_NET n226 2.314e+00
*DRIVER U441:ZN
*CELL NAND2_X1
*C2_R1_C1 1.157e+00 6.236e-03 1.157e+00 
*LOADS
*RC U440:A2 1.443e-02
*END

*R_NET n227 2.187e+00
*DRIVER U442:ZN
*CELL NAND2_X1
*C2_R1_C1 1.093e+00 6.236e-03 1.093e+00 
*LOADS
*RC U441:A1 1.364e-02
*END

*R_NET n228 4.751e+00
*DRIVER U446:ZN
*CELL NAND2_X1
*C2_R1_C1 2.375e+00 1.407e-02 2.375e+00 
*LOADS
*RC U432:A 1.686e-02
*RC U441:A2 1.656e-02
*END

*R_NET n229 7.622e+00
*DRIVER U324:Z
*CELL XOR2_X1
*C2_R1_C1 3.811e+00 2.308e-02 3.811e+00 
*LOADS
*RC U431:A1 1.707e-02
*RC U442:A1 1.738e-02
*RC U323:A 2.426e-02
*END

*R_NET n230 8.118e+00
*DRIVER U505:ZN
*CELL XNOR2_X1
*C2_R1_C1 4.059e+00 2.308e-02 4.059e+00 
*LOADS
*RC U431:A2 1.751e-02
*RC U442:A2 1.836e-02
*RC U323:B 2.659e-02
*END

*R_NET n231 2.314e+00
*DRIVER U447:ZN
*CELL NAND2_X1
*C2_R1_C1 1.157e+00 6.236e-03 1.157e+00 
*LOADS
*RC U446:A2 1.443e-02
*END

*R_NET n232 4.623e+00
*DRIVER U321:Z
*CELL XOR2_X1
*C2_R1_C1 2.312e+00 1.407e-02 2.312e+00 
*LOADS
*RC U434:A 1.686e-02
*RC U447:A1 1.566e-02
*END

*R_NET n233 2.314e+00
*DRIVER U448:ZN
*CELL NAND2_X1
*C2_R1_C1 1.157e+00 6.236e-03 1.157e+00 
*LOADS
*RC U447:A2 1.443e-02
*END

*R_NET n234 7.688e+00
*DRIVER U548:ZN
*CELL NAND2_X1
*C2_R1_C1 3.844e+00 2.308e-02 3.844e+00 
*LOADS
*RC U433:A2 1.751e-02
*RC U448:A1 1.738e-02
*RC U324:A 2.426e-02
*END

*R_NET n235 8.051e+00
*DRIVER U536:ZN
*CELL NAND2_X1
*C2_R1_C1 4.026e+00 2.308e-02 4.026e+00 
*LOADS
*RC U433:A1 1.707e-02
*RC U448:A2 1.836e-02
*RC U324:B 2.659e-02
*END

*R_NET n236 3.081e+00
*DRIVER U502:ZN
*CELL XNOR2_X1
*C2_R1_C1 1.541e+00 6.236e-03 1.541e+00 
*LOADS
*RC U321:A 1.921e-02
*END

*R_NET n237 2.187e+00
*DRIVER U570:ZN
*CELL NAND2_X1
*C2_R1_C1 1.093e+00 6.236e-03 1.093e+00 
*LOADS
*RC U569:A1 1.364e-02
*END

*R_NET n238 2.314e+00
*DRIVER U571:ZN
*CELL NAND2_X1
*C2_R1_C1 1.157e+00 6.236e-03 1.157e+00 
*LOADS
*RC U569:A2 1.443e-02
*END

*R_NET n239 2.187e+00
*DRIVER U572:ZN
*CELL OR2_X1
*C2_R1_C1 1.093e+00 6.236e-03 1.093e+00 
*LOADS
*RC U571:A1 1.364e-02
*END

*R_NET n240 5.606e+00
*DRIVER U638:ZN
*CELL NAND2_X1
*C2_R1_C1 2.803e+00 1.407e-02 2.803e+00 
*LOADS
*RC U506:B 2.296e-02
*RC U571:A2 1.656e-02
*END

*R_NET n241 7.092e+00
*DRIVER U613:ZN
*CELL NAND2_X1
*C2_R1_C1 3.546e+00 2.308e-02 3.546e+00 
*LOADS
*RC U505:A 2.446e-02
*RC U572:A1 1.175e-02
*RC U570:A2 1.836e-02
*END

*R_NET n242 6.936e+00
*DRIVER U500:ZN
*CELL NOR3_X1
*C2_R1_C1 3.468e+00 2.308e-02 3.468e+00 
*LOADS
*RC U506:A 2.446e-02
*RC U572:A2 1.152e-02
*RC U570:A1 1.738e-02
*END

*R_NET n243 2.187e+00
*DRIVER U354:ZN
*CELL NAND2_X1
*C2_R1_C1 1.093e+00 6.236e-03 1.093e+00 
*LOADS
*RC U353:A1 1.364e-02
*END

*R_NET n244 2.314e+00
*DRIVER U355:ZN
*CELL NAND2_X1
*C2_R1_C1 1.157e+00 6.236e-03 1.157e+00 
*LOADS
*RC U353:A2 1.443e-02
*END

*R_NET n245 7.930e+00
*DRIVER U383:ZN
*CELL NOR2_X1
*C2_R1_C1 3.965e+00 2.308e-02 3.965e+00 
*LOADS
*RC U355:A1 1.738e-02
*RC U354:A2 1.836e-02
*RC U362:B 2.536e-02
*END

*R_NET n246 4.806e+00
*DRIVER U357:ZN
*CELL NAND2_X1
*C2_R1_C1 2.403e+00 1.407e-02 2.403e+00 
*LOADS
*RC U355:A2 1.656e-02
*RC U363:A1 1.725e-02
*END

*R_NET n247 7.092e+00
*DRIVER U366:ZN
*CELL NOR2_X1
*C2_R1_C1 3.546e+00 2.308e-02 3.546e+00 
*LOADS
*RC U354:A1 1.738e-02
*RC U363:A2 1.806e-02
*RC U364:A1 1.912e-02
*END

*R_NET n249 2.275e+00
*DRIVER U384:ZN
*CELL AND2_X1
*C2_R1_C1 1.138e+00 6.236e-03 1.138e+00 
*LOADS
*RC U383:A2 1.419e-02
*END

*R_NET n250 3.758e+00
*DRIVER U386:ZN
*CELL XNOR2_X1
*C2_R1_C1 1.879e+00 1.407e-02 1.879e+00 
*LOADS
*RC U384:A1 1.015e-02
*RC U385:A2 1.628e-02
*END

*R_NET n251 6.281e+00
*DRIVER U397:ZN
*CELL NAND3_X1
*C2_R1_C1 3.141e+00 2.308e-02 3.141e+00 
*LOADS
*RC U384:A2 1.183e-02
*RC U385:A1 1.912e-02
*RC U412:A1 1.738e-02
*END

*R_NET n252 3.224e+00
*DRIVER U506:ZN
*CELL XNOR2_X1
*C2_R1_C1 1.612e+00 6.236e-03 1.612e+00 
*LOADS
*RC U505:B 2.010e-02
*END

*R_NET n253 2.187e+00
*DRIVER U639:ZN
*CELL NAND2_X1
*C2_R1_C1 1.093e+00 6.236e-03 1.093e+00 
*LOADS
*RC U638:A1 1.364e-02
*END

*R_NET n254 2.314e+00
*DRIVER U640:ZN
*CELL NAND2_X1
*C2_R1_C1 1.157e+00 6.236e-03 1.157e+00 
*LOADS
*RC U638:A2 1.443e-02
*END

*R_NET n255 5.423e+00
*DRIVER U647:ZN
*CELL NAND2_X1
*C2_R1_C1 2.711e+00 1.407e-02 2.711e+00 
*LOADS
*RC U500:A3 1.602e-02
*RC U509:A 2.213e-02
*END

*R_NET n256 2.187e+00
*DRIVER U614:ZN
*CELL NAND2_X1
*C2_R1_C1 1.093e+00 6.236e-03 1.093e+00 
*LOADS
*RC U613:A1 1.364e-02
*END

*R_NET n257 2.314e+00
*DRIVER U615:ZN
*CELL NAND2_X1
*C2_R1_C1 1.157e+00 6.236e-03 1.157e+00 
*LOADS
*RC U613:A2 1.443e-02
*END

*R_NET n258 2.187e+00
*DRIVER U537:ZN
*CELL OR2_X1
*C2_R1_C1 1.093e+00 6.236e-03 1.093e+00 
*LOADS
*RC U536:A1 1.364e-02
*END

*R_NET n259 2.314e+00
*DRIVER U538:ZN
*CELL NAND2_X1
*C2_R1_C1 1.157e+00 6.236e-03 1.157e+00 
*LOADS
*RC U536:A2 1.443e-02
*END

*R_NET n260 2.187e+00
*DRIVER U539:ZN
*CELL NAND2_X1
*C2_R1_C1 1.093e+00 6.236e-03 1.093e+00 
*LOADS
*RC U538:A1 1.364e-02
*END

*R_NET n261 5.777e+00
*DRIVER U565:ZN
*CELL NAND2_X1
*C2_R1_C1 2.888e+00 1.407e-02 2.888e+00 
*LOADS
*RC U538:A2 1.656e-02
*RC U327:B 2.408e-02
*END

*R_NET n262 7.070e+00
*DRIVER U616:ZN
*CELL NAND2_X1
*C2_R1_C1 3.535e+00 2.308e-02 3.535e+00 
*LOADS
*RC U498:B 2.536e-02
*RC U539:A1 1.738e-02
*RC U537:A1 1.175e-02
*END

*R_NET n263 7.063e+00
*DRIVER U617:ZN
*CELL NAND2_X1
*C2_R1_C1 3.532e+00 2.308e-02 3.532e+00 
*LOADS
*RC U498:A 2.446e-02
*RC U539:A2 1.836e-02
*RC U537:A2 1.152e-02
*END

*R_NET n264 2.187e+00
*DRIVER U549:ZN
*CELL OR2_X1
*C2_R1_C1 1.093e+00 6.236e-03 1.093e+00 
*LOADS
*RC U548:A1 1.364e-02
*END

*R_NET n265 2.314e+00
*DRIVER U550:ZN
*CELL NAND2_X1
*C2_R1_C1 1.157e+00 6.236e-03 1.157e+00 
*LOADS
*RC U548:A2 1.443e-02
*END

*R_NET n266 2.187e+00
*DRIVER U551:ZN
*CELL NAND2_X1
*C2_R1_C1 1.093e+00 6.236e-03 1.093e+00 
*LOADS
*RC U550:A1 1.364e-02
*END

*R_NET n267 5.500e+00
*DRIVER U481:ZN
*CELL NAND2_X1
*C2_R1_C1 2.750e+00 1.407e-02 2.750e+00 
*LOADS
*RC U467:A 2.213e-02
*RC U550:A2 1.656e-02
*END

*R_NET n268 7.041e+00
*DRIVER U327:Z
*CELL XOR2_X1
*C2_R1_C1 3.521e+00 2.308e-02 3.521e+00 
*LOADS
*RC U466:B 2.536e-02
*RC U551:A1 1.738e-02
*RC U549:A2 1.152e-02
*END

*R_NET n269 7.198e+00
*DRIVER U602:ZN
*CELL NAND2_X1
*C2_R1_C1 3.599e+00 2.308e-02 3.599e+00 
*LOADS
*RC U467:B 2.536e-02
*RC U551:A2 1.836e-02
*RC U549:A1 1.175e-02
*END

*R_NET n270 2.187e+00
*DRIVER U436:ZN
*CELL NAND2_X1
*C2_R1_C1 1.093e+00 6.236e-03 1.093e+00 
*LOADS
*RC U435:A1 1.364e-02
*END

*R_NET n271 2.314e+00
*DRIVER U437:ZN
*CELL NAND2_X1
*C2_R1_C1 1.157e+00 6.236e-03 1.157e+00 
*LOADS
*RC U435:A2 1.443e-02
*END

*R_NET n272 5.372e+00
*DRIVER U326:Z
*CELL XOR2_X1
*C2_R1_C1 2.686e+00 1.407e-02 2.686e+00 
*LOADS
*RC U395:A 2.213e-02
*RC U437:A1 1.566e-02
*END

*R_NET n273 5.606e+00
*DRIVER U509:ZN
*CELL XNOR2_X1
*C2_R1_C1 2.803e+00 1.407e-02 2.803e+00 
*LOADS
*RC U395:B 2.296e-02
*RC U437:A2 1.656e-02
*END

*R_NET n274 5.347e+00
*DRIVER U466:ZN
*CELL XNOR2_X1
*C2_R1_C1 2.674e+00 1.407e-02 2.674e+00 
*LOADS
*RC U436:A1 1.566e-02
*RC U326:A 2.195e-02
*END

*R_NET n275 5.777e+00
*DRIVER U408:ZN
*CELL NAND2_X1
*C2_R1_C1 2.888e+00 1.407e-02 2.888e+00 
*LOADS
*RC U436:A2 1.656e-02
*RC U326:B 2.408e-02
*END

*R_NET n276 2.187e+00
*DRIVER U358:ZN
*CELL NAND2_X1
*C2_R1_C1 1.093e+00 6.236e-03 1.093e+00 
*LOADS
*RC U357:A1 1.364e-02
*END

*R_NET n277 2.314e+00
*DRIVER U359:ZN
*CELL NAND2_X1
*C2_R1_C1 1.157e+00 6.236e-03 1.157e+00 
*LOADS
*RC U357:A2 1.443e-02
*END

*R_NET n278 4.679e+00
*DRIVER U356:ZN
*CELL AND2_X1
*C2_R1_C1 2.339e+00 1.407e-02 2.339e+00 
*LOADS
*RC U359:A1 1.566e-02
*RC U361:A1 1.725e-02
*END

*R_NET n279 8.058e+00
*DRIVER U364:ZN
*CELL NOR2_X1
*C2_R1_C1 4.029e+00 2.308e-02 4.029e+00 
*LOADS
*RC U359:A2 1.836e-02
*RC U358:A2 1.836e-02
*RC U360:B 2.536e-02
*END

*R_NET n280 4.541e+00
*DRIVER U387:ZN
*CELL NOR2_X1
*C2_R1_C1 2.271e+00 1.407e-02 2.271e+00 
*LOADS
*RC U358:A1 1.566e-02
*RC U361:A2 1.628e-02
*END

*R_NET n282 2.275e+00
*DRIVER U365:ZN
*CELL AND2_X1
*C2_R1_C1 1.138e+00 6.236e-03 1.138e+00 
*LOADS
*RC U364:A2 1.419e-02
*END

*R_NET n283 3.758e+00
*DRIVER U412:ZN
*CELL NAND2_X1
*C2_R1_C1 1.879e+00 1.407e-02 1.879e+00 
*LOADS
*RC U365:A1 1.015e-02
*RC U366:A2 1.628e-02
*END

*R_NET n284 3.957e+00
*DRIVER U443:ZN
*CELL NAND2_X1
*C2_R1_C1 1.978e+00 1.407e-02 1.978e+00 
*LOADS
*RC U365:A2 1.058e-02
*RC U366:A1 1.725e-02
*END

*R_NET n285 2.314e+00
*DRIVER U413:ZN
*CELL NAND2_X1
*C2_R1_C1 1.157e+00 6.236e-03 1.157e+00 
*LOADS
*RC U412:A2 1.443e-02
*END

*R_NET n286 4.623e+00
*DRIVER U395:ZN
*CELL XNOR2_X1
*C2_R1_C1 2.312e+00 1.407e-02 2.312e+00 
*LOADS
*RC U398:A 1.686e-02
*RC U413:A1 1.566e-02
*END

*R_NET n287 2.314e+00
*DRIVER U414:ZN
*CELL NAND2_X1
*C2_R1_C1 1.157e+00 6.236e-03 1.157e+00 
*LOADS
*RC U413:A2 1.443e-02
*END

*R_NET n288 7.990e+00
*DRIVER U507:ZN
*CELL XNOR2_X1
*C2_R1_C1 3.995e+00 2.308e-02 3.995e+00 
*LOADS
*RC U397:A2 1.751e-02
*RC U414:A1 1.738e-02
*RC U347:B 2.659e-02
*END

*R_NET n289 7.749e+00
*DRIVER U425:ZN
*CELL XNOR2_X1
*C2_R1_C1 3.875e+00 2.308e-02 3.875e+00 
*LOADS
*RC U397:A1 1.707e-02
*RC U414:A2 1.836e-02
*RC U347:A 2.426e-02
*END

*R_NET n290 3.224e+00
*DRIVER U510:ZN
*CELL NOR2_X1
*C2_R1_C1 1.612e+00 6.236e-03 1.612e+00 
*LOADS
*RC U509:B 2.010e-02
*END

*R_NET n291 2.187e+00
*DRIVER U409:ZN
*CELL NAND2_X1
*C2_R1_C1 1.093e+00 6.236e-03 1.093e+00 
*LOADS
*RC U408:A1 1.364e-02
*END

*R_NET n292 2.314e+00
*DRIVER U410:ZN
*CELL NAND2_X1
*C2_R1_C1 1.157e+00 6.236e-03 1.157e+00 
*LOADS
*RC U408:A2 1.443e-02
*END

*R_NET n293 2.187e+00
*DRIVER U411:ZN
*CELL OR2_X1
*C2_R1_C1 1.093e+00 6.236e-03 1.093e+00 
*LOADS
*RC U410:A1 1.364e-02
*END

*R_NET n294 5.500e+00
*DRIVER U404:ZN
*CELL NAND2_X1