*SPEF "IEEE 1481-1999"
*DESIGN "broke_array_multiplier8"
*DATE "Thu Sep 10 16:38:57 2020"
*VENDOR "SYNOPSYS INC"
*PROGRAM "Synopsys Design Compiler cmos"
*VERSION "N-2017.09-SP3"
*DESIGN_FLOW "SYNTHESIS"
*DIVIDER /
*DELIMITER :
*BUS_DELIMITER []
*T_UNIT 1.0 NS
*C_UNIT 0.0010 PF
*R_UNIT 1000.0 KOHM
*L_UNIT 1.0 HENRY

*PORTS

op1_i\[7\] I *L 0.000e+00 *S 0.000e+00 0.000e+00 
op1_i\[6\] I *L 0.000e+00 *S 0.000e+00 0.000e+00 
op1_i\[5\] I *L 0.000e+00 *S 0.000e+00 0.000e+00 
op1_i\[4\] I *L 0.000e+00 *S 0.000e+00 0.000e+00 
op1_i\[3\] I *L 0.000e+00 *S 0.000e+00 0.000e+00 
op1_i\[2\] I *L 0.000e+00 *S 0.000e+00 0.000e+00 
op1_i\[1\] I *L 0.000e+00 *S 0.000e+00 0.000e+00 
op1_i\[0\] I *L 0.000e+00 *S 0.000e+00 0.000e+00 
op2_i\[7\] I *L 0.000e+00 *S 0.000e+00 0.000e+00 
op2_i\[6\] I *L 0.000e+00 *S 0.000e+00 0.000e+00 
op2_i\[5\] I *L 0.000e+00 *S 0.000e+00 0.000e+00 
op2_i\[4\] I *L 0.000e+00 *S 0.000e+00 0.000e+00 
op2_i\[3\] I *L 0.000e+00 *S 0.000e+00 0.000e+00 
op2_i\[2\] I *L 0.000e+00 *S 0.000e+00 0.000e+00 
op2_i\[1\] I *L 0.000e+00 *S 0.000e+00 0.000e+00 
op2_i\[0\] I *L 0.000e+00 *S 0.000e+00 0.000e+00 
product_o\[15\] O *L 1.000e-01 *S 1.851e-03 1.752e-03 
product_o\[14\] O *L 1.000e-01 *S 2.769e-03 1.850e-03 
product_o\[13\] O *L 1.000e-01 *S 2.769e-03 1.850e-03 
product_o\[12\] O *L 1.000e-01 *S 2.769e-03 1.850e-03 
product_o\[11\] O *L 1.000e-01 *S 2.769e-03 1.850e-03 
product_o\[10\] O *L 1.000e-01 *S 2.700e-03 1.836e-03 
product_o\[9\] O *L 1.000e-01 *S 2.769e-03 1.850e-03 
product_o\[8\] O *L 1.000e-01 *S 2.700e-03 1.836e-03 
product_o\[7\] O *L 1.000e-01 *S 2.700e-03 1.836e-03 
product_o\[6\] O *L 1.000e-01 *S 2.700e-03 1.836e-03 
product_o\[5\] O *L 1.000e-01 *S 2.700e-03 1.836e-03 
product_o\[4\] O *L 1.000e-01 *S 2.700e-03 1.836e-03 
product_o\[3\] O *L 1.000e-01 *S 1.406e-03 1.026e-03 
product_o\[2\] O *L 1.000e-01 *S 1.406e-03 1.026e-03 
product_o\[1\] O *L 1.000e-01 *S 1.406e-03 1.026e-03 
product_o\[0\] O *L 1.000e-01 *S 1.406e-03 1.026e-03 

*R_NET op1_i\[7\] 1.965e+01
*DRIVER op1_i\[7\]
*CELL NULL
*C2_R1_C1 9.823e+00 9.102e-02 9.823e+00 
*LOADS
*RC U502:A2 2.535e-02
*RC U512:A1 2.365e-02
*RC U515:A1 1.614e-02
*RC U531:A1 2.406e-02
*RC U534:A2 2.535e-02
*RC U541:A2 1.676e-02
*RC U550:A2 2.535e-02
*RC U554:A2 1.676e-02
*RC U572:A2 2.535e-02
*END

*R_NET op1_i\[6\] 1.477e+01
*DRIVER op1_i\[6\]
*CELL NULL
*C2_R1_C1 7.387e+00 8.097e-02 7.387e+00 
*LOADS
*RC U514:A1 2.409e-02
*RC U520:A1 1.616e-02
*RC U527:A2 2.538e-02
*RC U543:A2 1.678e-02
*RC U549:A2 1.678e-02
*RC U556:A2 1.678e-02
*RC U563:A2 1.678e-02
*RC U577:A2 1.678e-02
*END

*R_NET op1_i\[5\] 1.386e+01
*DRIVER op1_i\[5\]
*CELL NULL
*C2_R1_C1 6.931e+00 8.097e-02 6.931e+00 
*LOADS
*RC U510:A1 1.616e-02
*RC U519:A1 2.409e-02
*RC U546:A1 1.616e-02
*RC U548:A2 1.678e-02
*RC U562:A2 1.678e-02
*RC U568:A2 1.678e-02
*RC U569:A2 1.678e-02
*RC U576:A2 1.678e-02
*END

*R_NET op1_i\[4\] 1.386e+01
*DRIVER op1_i\[4\]
*CELL NULL
*C2_R1_C1 6.931e+00 8.097e-02 6.931e+00 
*LOADS
*RC U507:A1 1.616e-02
*RC U509:A1 2.409e-02
*RC U540:A1 1.616e-02
*RC U542:A2 1.678e-02
*RC U547:A2 1.678e-02
*RC U559:A2 1.678e-02
*RC U560:A2 1.678e-02
*RC U575:A2 1.678e-02
*END

*R_NET op1_i\[3\] 1.205e+01
*DRIVER op1_i\[3\]
*CELL NULL
*C2_R1_C1 6.024e+00 6.648e-02 6.024e+00 
*LOADS
*RC U506:A1 2.231e-02
*RC U536:A1 1.487e-02
*RC U537:A2 1.545e-02
*RC U545:A2 1.545e-02
*RC U553:A2 1.545e-02
*RC U555:A2 1.545e-02
*RC U561:A2 1.545e-02
*END

*R_NET op1_i\[2\] 1.295e+01
*DRIVER op1_i\[2\]
*CELL NULL
*C2_R1_C1 6.475e+00 6.648e-02 6.475e+00 
*LOADS
*RC U504:A3 1.536e-02
*RC U517:A1 2.231e-02
*RC U528:A2 2.352e-02
*RC U538:A2 1.545e-02
*RC U539:A2 1.545e-02
*RC U557:A2 1.545e-02
*RC U558:A2 1.545e-02
*END

*R_NET op1_i\[1\] 1.366e+01
*DRIVER op1_i\[1\]
*CELL NULL
*C2_R1_C1 6.831e+00 5.299e-02 6.831e+00 
*LOADS
*RC U522:A1 2.045e-02
*RC U525:A3 2.139e-02
*RC U529:A2 2.158e-02
*RC U530:A2 2.158e-02
*RC U551:A2 2.158e-02
*RC U552:A2 1.407e-02
*END

*R_NET op1_i\[0\] 2.504e+01
*DRIVER op1_i\[0\]
*CELL NULL
*C2_R1_C1 1.252e+01 1.144e-01 1.252e+01 
*LOADS
*RC U523:A1 2.202e-02
*RC U524:A1 2.202e-02
*RC U526:A3 2.343e-02
*RC U544:A2 1.482e-02
*RC U565:A2 2.362e-02
*RC U567:A2 2.362e-02
*RC U571:A2 2.362e-02
*RC U574:A2 2.362e-02
*RC U578:A2 1.553e-02
*RC U579:A2 1.553e-02
*RC U580:A2 1.553e-02
*RC U581:A2 1.553e-02
*END

*R_NET op2_i\[7\] 1.973e+01
*DRIVER op2_i\[7\]
*CELL NULL
*C2_R1_C1 9.864e+00 9.378e-02 9.864e+00 
*LOADS
*RC U502:A1 2.197e-02
*RC U512:A3 2.297e-02
*RC U523:A3 2.297e-02
*RC U551:A1 2.197e-02
*RC U558:A1 1.463e-02
*RC U561:A1 1.463e-02
*RC U567:A1 2.197e-02
*RC U575:A1 1.463e-02
*RC U576:A1 1.463e-02
*RC U577:A1 1.463e-02
*END

*R_NET op2_i\[6\] 1.586e+01
*DRIVER op2_i\[6\]
*CELL NULL
*C2_R1_C1 7.928e+00 9.102e-02 7.928e+00 
*LOADS
*RC U544:A1 1.535e-02
*RC U552:A1 1.614e-02
*RC U555:A1 1.614e-02
*RC U557:A1 1.614e-02
*RC U560:A1 1.614e-02
*RC U562:A1 1.614e-02
*RC U563:A1 1.614e-02
*RC U565:A1 2.406e-02
*RC U572:A1 2.406e-02
*END

*R_NET op2_i\[5\] 1.761e+01
*DRIVER op2_i\[5\]
*CELL NULL
*C2_R1_C1 8.803e+00 9.102e-02 8.803e+00 
*LOADS
*RC U524:A3 2.514e-02
*RC U530:A1 2.406e-02
*RC U539:A1 1.614e-02
*RC U550:A1 2.406e-02
*RC U553:A1 1.614e-02
*RC U556:A1 1.614e-02
*RC U559:A1 1.614e-02
*RC U569:A1 1.614e-02
*RC U571:A1 2.406e-02
*END

*R_NET op2_i\[4\] 1.507e+01
*DRIVER op2_i\[4\]
*CELL NULL
*C2_R1_C1 7.537e+00 8.097e-02 7.537e+00 
*LOADS
*RC U526:A1 2.368e-02
*RC U529:A1 2.409e-02
*RC U538:A1 1.616e-02
*RC U542:A1 1.616e-02
*RC U545:A1 1.616e-02
*RC U549:A1 1.616e-02
*RC U568:A1 1.616e-02
*RC U574:A1 2.409e-02
*END

*R_NET op2_i\[3\] 1.679e+01
*DRIVER op2_i\[3\]
*CELL NULL
*C2_R1_C1 8.397e+00 9.102e-02 8.397e+00 
*LOADS
*RC U522:A2 2.535e-02
*RC U525:A1 2.365e-02
*RC U528:A1 2.406e-02
*RC U537:A1 1.614e-02
*RC U543:A1 1.614e-02
*RC U547:A1 1.614e-02
*RC U548:A1 1.614e-02
*RC U554:A1 1.614e-02
*RC U581:A1 1.614e-02
*END

*R_NET op2_i\[2\] 1.536e+01
*DRIVER op2_i\[2\]
*CELL NULL
*C2_R1_C1 7.678e+00 8.097e-02 7.678e+00 
*LOADS
*RC U504:A1 1.537e-02
*RC U517:A2 2.538e-02
*RC U527:A1 2.409e-02
*RC U534:A1 2.409e-02
*RC U536:A2 1.678e-02
*RC U540:A2 1.678e-02
*RC U546:A2 1.678e-02
*RC U580:A1 1.616e-02
*END

*R_NET op2_i\[1\] 1.284e+01
*DRIVER op2_i\[1\]
*CELL NULL
*C2_R1_C1 6.419e+00 5.299e-02 6.419e+00 
*LOADS
*RC U506:A2 2.158e-02
*RC U509:A2 2.158e-02
*RC U514:A2 2.158e-02
*RC U519:A2 2.158e-02
*RC U541:A1 1.354e-02
*RC U579:A1 1.354e-02
*END

*R_NET op2_i\[0\] 7.828e+00
*DRIVER op2_i\[0\]
*CELL NULL
*C2_R1_C1 3.914e+00 4.254e-02 3.914e+00 
*LOADS
*RC U507:A2 1.342e-02
*RC U510:A2 1.342e-02
*RC U515:A2 1.342e-02
*RC U520:A2 1.342e-02
*RC U578:A1 1.291e-02
*END

*R_NET product_o\[15\] 4.097e-01
*DRIVER U511:ZN
*CELL NAND2_X1
*C2_R1_C1 2.049e-01 6.236e-03 2.049e-01 
*LOADS
*RC product_o\[15\] 2.555e-03
*END

*R_NET product_o\[14\] 4.097e-01
*DRIVER U283:Z
*CELL XOR2_X1
*C2_R1_C1 2.049e-01 6.236e-03 2.049e-01 
*LOADS
*RC product_o\[14\] 2.555e-03
*END

*R_NET product_o\[13\] 4.097e-01
*DRIVER U284:Z
*CELL XOR2_X1
*C2_R1_C1 2.049e-01 6.236e-03 2.049e-01 
*LOADS
*RC product_o\[13\] 2.555e-03
*END

*R_NET product_o\[12\] 4.097e-01
*DRIVER U288:Z
*CELL XOR2_X1
*C2_R1_C1 2.049e-01 6.236e-03 2.049e-01 
*LOADS
*RC product_o\[12\] 2.555e-03
*END

*R_NET product_o\[11\] 4.097e-01
*DRIVER U290:Z
*CELL XOR2_X1
*C2_R1_C1 2.049e-01 6.236e-03 2.049e-01 
*LOADS
*RC product_o\[11\] 2.555e-03
*END

*R_NET product_o\[10\] 4.097e-01
*DRIVER U474:ZN
*CELL XNOR2_X1
*C2_R1_C1 2.049e-01 6.236e-03 2.049e-01 
*LOADS
*RC product_o\[10\] 2.555e-03
*END

*R_NET product_o\[9\] 4.097e-01
*DRIVER U280:Z
*CELL XOR2_X1
*C2_R1_C1 2.049e-01 6.236e-03 2.049e-01 
*LOADS
*RC product_o\[9\] 2.555e-03
*END

*R_NET product_o\[8\] 4.097e-01
*DRIVER U500:ZN
*CELL XNOR2_X1
*C2_R1_C1 2.049e-01 6.236e-03 2.049e-01 
*LOADS
*RC product_o\[8\] 2.555e-03
*END

*R_NET product_o\[7\] 4.097e-01
*DRIVER U566:ZN
*CELL XNOR2_X1
*C2_R1_C1 2.049e-01 6.236e-03 2.049e-01 
*LOADS
*RC product_o\[7\] 2.555e-03
*END

*R_NET product_o\[6\] 4.097e-01
*DRIVER U564:ZN
*CELL XNOR2_X1
*C2_R1_C1 2.049e-01 6.236e-03 2.049e-01 
*LOADS
*RC product_o\[6\] 2.555e-03
*END

*R_NET product_o\[5\] 4.097e-01
*DRIVER U570:ZN
*CELL XNOR2_X1
*C2_R1_C1 2.049e-01 6.236e-03 2.049e-01 
*LOADS
*RC product_o\[5\] 2.555e-03
*END

*R_NET product_o\[4\] 4.097e-01
*DRIVER U573:ZN
*CELL XNOR2_X1
*C2_R1_C1 2.049e-01 6.236e-03 2.049e-01 
*LOADS
*RC product_o\[4\] 2.555e-03
*END

*R_NET product_o\[3\] 4.097e-01
*DRIVER U581:ZN
*CELL AND2_X1
*C2_R1_C1 2.049e-01 6.236e-03 2.049e-01 
*LOADS
*RC product_o\[3\] 2.555e-03
*END

*R_NET product_o\[2\] 4.097e-01
*DRIVER U580:ZN
*CELL AND2_X1
*C2_R1_C1 2.049e-01 6.236e-03 2.049e-01 
*LOADS
*RC product_o\[2\] 2.555e-03
*END

*R_NET product_o\[1\] 4.097e-01
*DRIVER U579:ZN
*CELL AND2_X1
*C2_R1_C1 2.049e-01 6.236e-03 2.049e-01 
*LOADS
*RC product_o\[1\] 2.555e-03
*END

*R_NET product_o\[0\] 4.097e-01
*DRIVER U578:ZN
*CELL AND2_X1
*C2_R1_C1 2.049e-01 6.236e-03 2.049e-01 
*LOADS
*RC product_o\[0\] 2.555e-03
*END

*R_NET n202 2.187e+00
*DRIVER U535:ZN
*CELL INV_X1
*C2_R1_C1 1.093e+00 6.236e-03 1.093e+00 
*LOADS
*RC U533:A1 1.364e-02
*END

*R_NET n203 3.081e+00
*DRIVER U281:Z
*CELL XOR2_X1
*C2_R1_C1 1.541e+00 6.236e-03 1.541e+00 
*LOADS
*RC U280:A 1.921e-02
*END

*R_NET n204 5.649e+00
*DRIVER U418:ZN
*CELL XNOR2_X1
*C2_R1_C1 2.825e+00 1.407e-02 2.825e+00 
*LOADS
*RC U428:A1 1.566e-02
*RC U280:B 2.408e-02
*END

*R_NET n205 7.067e+00
*DRIVER U458:ZN
*CELL NAND2_X1
*C2_R1_C1 3.533e+00 2.308e-02 3.533e+00 
*LOADS
*RC U429:A1 1.175e-02
*RC U427:A2 1.836e-02
*RC U281:A 2.426e-02
*END

*R_NET n206 7.213e+00
*DRIVER U558:ZN
*CELL AND2_X1
*C2_R1_C1 3.606e+00 2.308e-02 3.606e+00 
*LOADS
*RC U429:A2 1.152e-02
*RC U427:A1 1.738e-02
*RC U281:B 2.659e-02
*END

*R_NET n207 3.106e+00
*DRIVER U501:ZN
*CELL XNOR2_X1
*C2_R1_C1 1.553e+00 6.236e-03 1.553e+00 
*LOADS
*RC U500:A 1.937e-02
*END

*R_NET n208 5.478e+00
*DRIVER U293:Z
*CELL XOR2_X1
*C2_R1_C1 2.739e+00 1.407e-02 2.739e+00 
*LOADS
*RC U460:A1 1.566e-02
*RC U500:B 2.296e-02
*END

*R_NET n209 6.965e+00
*DRIVER U523:ZN
*CELL NAND3_X1
*C2_R1_C1 3.482e+00 2.308e-02 3.482e+00 
*LOADS
*RC U461:A1 1.738e-02
*RC U459:A1 1.175e-02
*RC U501:A 2.446e-02
*END

*R_NET n210 7.169e+00
*DRIVER U551:ZN
*CELL NAND2_X1
*C2_R1_C1 3.584e+00 2.308e-02 3.584e+00 
*LOADS
*RC U461:A2 1.836e-02
*RC U459:A2 1.152e-02
*RC U501:B 2.536e-02
*END

*R_NET n211 3.106e+00
*DRIVER U567:ZN
*CELL NAND2_X1
*C2_R1_C1 1.553e+00 6.236e-03 1.553e+00 
*LOADS
*RC U566:A 1.937e-02
*END

*R_NET n212 5.495e+00
*DRIVER U410:ZN
*CELL XNOR2_X1
*C2_R1_C1 2.747e+00 1.407e-02 2.747e+00 
*LOADS
*RC U523:A2 1.578e-02
*RC U566:B 2.296e-02
*END

*R_NET n213 3.106e+00
*DRIVER U565:ZN
*CELL NAND2_X1
*C2_R1_C1 1.553e+00 6.236e-03 1.553e+00 
*LOADS
*RC U564:A 1.937e-02
*END

*R_NET n214 4.746e+00
*DRIVER U408:ZN
*CELL XNOR2_X1
*C2_R1_C1 2.373e+00 1.407e-02 2.373e+00 
*LOADS
*RC U544:A3 1.052e-02
*RC U564:B 2.296e-02
*END

*R_NET n215 3.106e+00
*DRIVER U571:ZN
*CELL NAND2_X1
*C2_R1_C1 1.553e+00 6.236e-03 1.553e+00 
*LOADS
*RC U570:A 1.937e-02
*END

*R_NET n216 5.495e+00
*DRIVER U412:ZN
*CELL XNOR2_X1
*C2_R1_C1 2.747e+00 1.407e-02 2.747e+00 
*LOADS
*RC U524:A2 1.578e-02
*RC U570:B 2.296e-02
*END

*R_NET n218 5.495e+00
*DRIVER U521:ZN
*CELL XNOR2_X1
*C2_R1_C1 2.747e+00 1.407e-02 2.747e+00 
*LOADS
*RC U526:A2 1.578e-02
*RC U573:B 2.296e-02
*END

*R_NET n219 4.580e+00
*DRIVER U315:ZN
*CELL NAND2_X1
*C2_R1_C1 2.290e+00 1.407e-02 2.290e+00 
*LOADS
*RC U503:A2 1.656e-02
*RC U511:A1 1.566e-02
*END

*R_NET n220 2.314e+00
*DRIVER U512:ZN
*CELL NAND3_X1
*C2_R1_C1 1.157e+00 6.236e-03 1.157e+00 
*LOADS
*RC U511:A2 1.443e-02
*END

*R_NET n221 4.469e+00
*DRIVER U316:ZN
*CELL OR2_X1
*C2_R1_C1 2.235e+00 1.407e-02 2.235e+00 
*LOADS
*RC U503:A1 1.566e-02
*RC U512:A2 1.578e-02
*END

*R_NET n222 3.081e+00
*DRIVER U503:ZN
*CELL NAND2_X1
*C2_R1_C1 1.541e+00 6.236e-03 1.541e+00 
*LOADS
*RC U283:A 1.921e-02
*END

*R_NET n223 3.383e+00
*DRIVER U502:ZN
*CELL NAND2_X1
*C2_R1_C1 1.692e+00 6.236e-03 1.692e+00 
*LOADS
*RC U283:B 2.110e-02
*END

*R_NET n224 3.692e+00
*DRIVER U480:ZN
*CELL NAND2_X1
*C2_R1_C1 1.846e+00 1.407e-02 1.846e+00 
*LOADS
*RC U315:A1 1.566e-02
*RC U316:A2 1.031e-02
*END

*R_NET n225 3.848e+00
*DRIVER U375:ZN
*CELL NAND2_X1
*C2_R1_C1 1.924e+00 1.407e-02 1.924e+00 
*LOADS
*RC U315:A2 1.656e-02
*RC U316:A1 1.051e-02
*END

*R_NET n226 2.187e+00
*DRIVER U481:ZN
*CELL OR2_X1
*C2_R1_C1 1.093e+00 6.236e-03 1.093e+00 
*LOADS
*RC U480:A1 1.364e-02
*END

*R_NET n227 2.314e+00
*DRIVER U482:ZN
*CELL NAND2_X1
*C2_R1_C1 1.157e+00 6.236e-03 1.157e+00 
*LOADS
*RC U480:A2 1.443e-02
*END

*R_NET n228 2.187e+00
*DRIVER U483:ZN
*CELL NAND2_X1
*C2_R1_C1 1.093e+00 6.236e-03 1.093e+00 
*LOADS
*RC U482:A1 1.364e-02
*END

*R_NET n229 5.475e+00
*DRIVER U476:ZN
*CELL NAND2_X1
*C2_R1_C1 2.737e+00 1.407e-02 2.737e+00 
*LOADS
*RC U482:A2 1.656e-02
*RC U286:A 2.195e-02
*END

*R_NET n230 6.911e+00
*DRIVER U371:ZN
*CELL AND2_X1
*C2_R1_C1 3.455e+00 2.308e-02 3.455e+00 
*LOADS
*RC U483:A1 1.738e-02
*RC U481:A2 1.152e-02
*RC U285:A 2.426e-02
*END

*R_NET n231 7.369e+00
*DRIVER U572:ZN
*CELL NAND2_X1
*C2_R1_C1 3.684e+00 2.308e-02 3.684e+00 
*LOADS
*RC U483:A2 1.836e-02
*RC U481:A1 1.175e-02
*RC U286:B 2.659e-02
*END

*R_NET n232 2.187e+00
*DRIVER U376:ZN
*CELL NAND2_X1
*C2_R1_C1 1.093e+00 6.236e-03 1.093e+00 
*LOADS
*RC U375:A1 1.364e-02
*END

*R_NET n233 2.314e+00
*DRIVER U377:ZN
*CELL NAND2_X1
*C2_R1_C1 1.157e+00 6.236e-03 1.157e+00 
*LOADS
*RC U375:A2 1.443e-02
*END

*R_NET n234 5.649e+00
*DRIVER U577:ZN
*CELL AND2_X1
*C2_R1_C1 2.825e+00 1.407e-02 2.825e+00 
*LOADS
*RC U377:A1 1.566e-02
*RC U287:B 2.408e-02
*END

*R_NET n235 2.314e+00
*DRIVER U378:ZN
*CELL OR2_X1
*C2_R1_C1 1.157e+00 6.236e-03 1.157e+00 
*LOADS
*RC U377:A2 1.443e-02
*END

*R_NET n236 7.067e+00
*DRIVER U355:ZN
*CELL NAND2_X1
*C2_R1_C1 3.533e+00 2.308e-02 3.533e+00 
*LOADS
*RC U378:A1 1.175e-02
*RC U376:A2 1.836e-02
*RC U287:A 2.426e-02
*END

*R_NET n237 7.213e+00
*DRIVER U285:Z
*CELL XOR2_X1
*C2_R1_C1 3.606e+00 2.308e-02 3.606e+00 
*LOADS
*RC U378:A2 1.152e-02
*RC U376:A1 1.738e-02
*RC U284:B 2.659e-02
*END

*R_NET n238 3.081e+00
*DRIVER U287:Z
*CELL XOR2_X1
*C2_R1_C1 1.541e+00 6.236e-03 1.541e+00 
*LOADS
*RC U284:A 1.921e-02
*END

*R_NET n239 3.383e+00
*DRIVER U286:Z
*CELL XOR2_X1
*C2_R1_C1 1.692e+00 6.236e-03 1.692e+00 
*LOADS
*RC U285:B 2.110e-02
*END

*R_NET n240 2.187e+00
*DRIVER U477:ZN
*CELL OR2_X1
*C2_R1_C1 1.093e+00 6.236e-03 1.093e+00 
*LOADS
*RC U476:A1 1.364e-02
*END

*R_NET n241 2.314e+00
*DRIVER U478:ZN
*CELL NAND2_X1
*C2_R1_C1 1.157e+00 6.236e-03 1.157e+00 
*LOADS
*RC U476:A2 1.443e-02
*END

*R_NET n242 5.372e+00
*DRIVER U468:ZN
*CELL AND2_X1
*C2_R1_C1 2.686e+00 1.407e-02 2.686e+00 
*LOADS
*RC U407:A 2.213e-02
*RC U478:A1 1.566e-02
*END

*R_NET n243 2.314e+00
*DRIVER U479:ZN
*CELL NAND2_X1
*C2_R1_C1 1.157e+00 6.236e-03 1.157e+00 
*LOADS
*RC U478:A2 1.443e-02
*END

*R_NET n244 6.936e+00
*DRIVER U446:ZN
*CELL AND2_X1
*C2_R1_C1 3.468e+00 2.308e-02 3.468e+00 
*LOADS
*RC U406:A 2.446e-02
*RC U479:A1 1.738e-02
*RC U477:A2 1.152e-02
*END

*R_NET n245 7.198e+00
*DRIVER U550:ZN
*CELL NAND2_X1
*C2_R1_C1 3.599e+00 2.308e-02 3.599e+00 
*LOADS
*RC U407:B 2.536e-02
*RC U479:A2 1.836e-02
*RC U477:A1 1.175e-02
*END

*R_NET n246 1.404e+00
*DRIVER U372:ZN
*CELL NAND2_X1
*C2_R1_C1 7.019e-01 6.236e-03 7.019e-01 
*LOADS
*RC U371:A1 8.754e-03
*END

*R_NET n247 1.465e+00
*DRIVER U373:ZN
*CELL NAND2_X1
*C2_R1_C1 7.324e-01 6.236e-03 7.324e-01 
*LOADS
*RC U371:A2 9.134e-03
*END

*R_NET n248 5.372e+00
*DRIVER U563:ZN
*CELL AND2_X1
*C2_R1_C1 2.686e+00 1.407e-02 2.686e+00 
*LOADS
*RC U328:A 2.213e-02
*RC U373:A1 1.566e-02
*END

*R_NET n249 2.314e+00
*DRIVER U374:ZN
*CELL OR2_X1
*C2_R1_C1 1.157e+00 6.236e-03 1.157e+00 
*LOADS
*RC U373:A2 1.443e-02
*END

*R_NET n250 6.965e+00
*DRIVER U406:ZN
*CELL XNOR2_X1
*C2_R1_C1 3.482e+00 2.308e-02 3.482e+00 
*LOADS
*RC U327:A 2.446e-02
*RC U374:A1 1.175e-02
*RC U372:A1 1.738e-02
*END

*R_NET n251 7.169e+00
*DRIVER U339:ZN
*CELL NAND2_X1
*C2_R1_C1 3.584e+00 2.308e-02 3.584e+00 
*LOADS
*RC U328:B 2.536e-02
*RC U374:A2 1.152e-02
*RC U372:A2 1.836e-02
*END

*R_NET n252 2.187e+00
*DRIVER U356:ZN
*CELL NAND2_X1
*C2_R1_C1 1.093e+00 6.236e-03 1.093e+00 
*LOADS
*RC U355:A1 1.364e-02
*END

*R_NET n253 2.314e+00
*DRIVER U357:ZN
*CELL NAND2_X1
*C2_R1_C1 1.157e+00 6.236e-03 1.157e+00 
*LOADS
*RC U355:A2 1.443e-02
*END

*R_NET n254 5.649e+00
*DRIVER U576:ZN
*CELL AND2_X1
*C2_R1_C1 2.825e+00 1.407e-02 2.825e+00 
*LOADS
*RC U357:A1 1.566e-02
*RC U289:B 2.408e-02
*END

*R_NET n255 2.314e+00
*DRIVER U358:ZN
*CELL OR2_X1
*C2_R1_C1 1.157e+00 6.236e-03 1.157e+00 
*LOADS
*RC U357:A2 1.443e-02
*END

*R_NET n256 7.067e+00
*DRIVER U351:ZN
*CELL NAND2_X1
*C2_R1_C1 3.533e+00 2.308e-02 3.533e+00 
*LOADS
*RC U358:A1 1.175e-02
*RC U356:A2 1.836e-02
*RC U289:A 2.426e-02
*END

*R_NET n257 7.213e+00
*DRIVER U327:ZN
*CELL XNOR2_X1
*C2_R1_C1 3.606e+00 2.308e-02 3.606e+00 
*LOADS
*RC U358:A2 1.152e-02
*RC U356:A1 1.738e-02
*RC U288:B 2.659e-02
*END

*R_NET n258 3.081e+00
*DRIVER U289:Z
*CELL XOR2_X1
*C2_R1_C1 1.541e+00 6.236e-03 1.541e+00 
*LOADS
*RC U288:A 1.921e-02
*END

*R_NET n259 3.224e+00
*DRIVER U328:ZN
*CELL XNOR2_X1
*C2_R1_C1 1.612e+00 6.236e-03 1.612e+00 
*LOADS
*RC U327:B 2.010e-02
*END

*R_NET n260 2.187e+00
*DRIVER U340:ZN
*CELL NAND2_X1
*C2_R1_C1 1.093e+00 6.236e-03 1.093e+00 
*LOADS
*RC U339:A1 1.364e-02
*END

*R_NET n261 2.314e+00
*DRIVER U341:ZN
*CELL NAND2_X1
*C2_R1_C1 1.157e+00 6.236e-03 1.157e+00 
*LOADS
*RC U339:A2 1.443e-02
*END

*R_NET n262 5.372e+00
*DRIVER U562:ZN
*CELL AND2_X1
*C2_R1_C1 2.686e+00 1.407e-02 2.686e+00 
*LOADS
*RC U330:A 2.213e-02
*RC U341:A1 1.566e-02
*END

*R_NET n263 2.314e+00
*DRIVER U342:ZN
*CELL OR2_X1
*C2_R1_C1 1.157e+00 6.236e-03 1.157e+00 
*LOADS
*RC U341:A2 1.443e-02
*END

*R_NET n264 7.198e+00
*DRIVER U335:ZN
*CELL NAND2_X1
*C2_R1_C1 3.599e+00 2.308e-02 3.599e+00 
*LOADS
*RC U330:B 2.536e-02
*RC U342:A1 1.175e-02
*RC U340:A2 1.836e-02
*END

*R_NET n265 6.936e+00
*DRIVER U320:ZN
*CELL XNOR2_X1
*C2_R1_C1 3.468e+00 2.308e-02 3.468e+00 
*LOADS
*RC U329:A 2.446e-02
*RC U342:A2 1.152e-02
*RC U340:A1 1.738e-02
*END

*R_NET n266 3.224e+00
*DRIVER U407:ZN
*CELL XNOR2_X1
*C2_R1_C1 1.612e+00 6.236e-03 1.612e+00 
*LOADS
*RC U406:B 2.010e-02
*END

*R_NET n267 1.031e+01
*DRIVER U549:ZN
*CELL AND2_X1
*C2_R1_C1 5.153e+00 3.293e-02 5.153e+00 
*LOADS
*RC U404:A 2.639e-02
*RC U425:B 2.736e-02
*RC U468:A1 1.237e-02
*RC U498:A1 1.882e-02
*END

*R_NET n268 1.465e+00
*DRIVER U469:ZN
*CELL NAND2_X1
*C2_R1_C1 7.324e-01 6.236e-03 7.324e-01 
*LOADS
*RC U468:A2 9.134e-03
*END

*R_NET n269 5.347e+00
*DRIVER U496:ZN
*CELL AND2_X1
*C2_R1_C1 2.674e+00 1.407e-02 2.674e+00 
*LOADS
*RC U469:A1 1.566e-02
*RC U292:A 2.195e-02
*END

*R_NET n270 5.606e+00
*DRIVER U462:ZN
*CELL NAND2_X1
*C2_R1_C1 2.803e+00 1.407e-02 2.803e+00 
*LOADS
*RC U404:B 2.296e-02
*RC U469:A2 1.656e-02
*END

*R_NET n271 1.404e+00
*DRIVER U447:ZN
*CELL OR2_X1
*C2_R1_C1 7.019e-01 6.236e-03 7.019e-01 
*LOADS
*RC U446:A1 8.754e-03
*END

*R_NET n272 1.465e+00
*DRIVER U448:ZN
*CELL NAND2_X1
*C2_R1_C1 7.324e-01 6.236e-03 7.324e-01 
*LOADS
*RC U446:A2 9.134e-03
*END

*R_NET n273 5.478e+00
*DRIVER U556:ZN
*CELL AND2_X1
*C2_R1_C1 2.739e+00 1.407e-02 2.739e+00 
*LOADS
*RC U321:B 2.296e-02
*RC U448:A1 1.566e-02
*END

*R_NET n274 2.314e+00
*DRIVER U449:ZN
*CELL NAND2_X1
*C2_R1_C1 1.157e+00 6.236e-03 1.157e+00 
*LOADS
*RC U448:A2 1.443e-02
*END

*R_NET n275 7.070e+00
*DRIVER U292:Z
*CELL XOR2_X1
*C2_R1_C1 3.535e+00 2.308e-02 3.535e+00 
*LOADS
*RC U320:B 2.536e-02
*RC U449:A1 1.738e-02
*RC U447:A1 1.175e-02
*END

*R_NET n276 7.063e+00
*DRIVER U395:ZN
*CELL AND2_X1
*C2_R1_C1 3.532e+00 2.308e-02 3.532e+00 
*LOADS
*RC U321:A 2.446e-02
*RC U449:A2 1.836e-02
*RC U447:A2 1.152e-02
*END

*R_NET n277 2.187e+00
*DRIVER U352:ZN
*CELL NAND2_X1
*C2_R1_C1 1.093e+00 6.236e-03 1.093e+00 
*LOADS
*RC U351:A1 1.364e-02
*END

*R_NET n278 2.314e+00
*DRIVER U353:ZN
*CELL NAND2_X1
*C2_R1_C1 1.157e+00 6.236e-03 1.157e+00 
*LOADS
*RC U351:A2 1.443e-02
*END

*R_NET n279 5.649e+00
*DRIVER U575:ZN
*CELL AND2_X1
*C2_R1_C1 2.825e+00 1.407e-02 2.825e+00 
*LOADS
*RC U353:A1 1.566e-02
*RC U291:B 2.408e-02
*END

*R_NET n280 2.314e+00
*DRIVER U354:ZN
*CELL OR2_X1
*C2_R1_C1 1.157e+00 6.236e-03 1.157e+00 
*LOADS
*RC U353:A2 1.443e-02
*END

*R_NET n281 7.067e+00
*DRIVER U347:ZN
*CELL NAND2_X1
*C2_R1_C1 3.533e+00 2.308e-02 3.533e+00 
*LOADS
*RC U354:A1 1.175e-02
*RC U352:A2 1.836e-02
*RC U291:A 2.426e-02
*END

*R_NET n282 6.911e+00
*DRIVER U329:ZN
*CELL XNOR2_X1
*C2_R1_C1 3.455e+00 2.308e-02 3.455e+00 
*LOADS
*RC U354:A2 1.152e-02
*RC U352:A1 1.738e-02
*RC U290:A 2.426e-02
*END

*R_NET n283 3.383e+00
*DRIVER U291:Z
*CELL XOR2_X1
*C2_R1_C1 1.692e+00 6.236e-03 1.692e+00 
*LOADS
*RC U290:B 2.110e-02
*END

*R_NET n284 2.187e+00
*DRIVER U348:ZN
*CELL NAND2_X1
*C2_R1_C1 1.093e+00 6.236e-03 1.093e+00 
*LOADS
*RC U347:A1 1.364e-02
*END

*R_NET n285 2.314e+00
*DRIVER U349:ZN
*CELL NAND2_X1
*C2_R1_C1 1.157e+00 6.236e-03 1.157e+00 
*LOADS
*RC U347:A2 1.443e-02
*END

*R_NET n286 5.372e+00
*DRIVER U561:ZN
*CELL AND2_X1
*C2_R1_C1 2.686e+00 1.407e-02 2.686e+00 
*LOADS
*RC U349:A1 1.566e-02
*RC U475:A 2.213e-02
*END

*R_NET n287 2.314e+00
*DRIVER U350:ZN
*CELL OR2_X1
*C2_R1_C1 1.157e+00 6.236e-03 1.157e+00 
*LOADS
*RC U349:A2 1.443e-02
*END

*R_NET n288 7.198e+00
*DRIVER U426:ZN
*CELL NAND2_X1
*C2_R1_C1 3.599e+00 2.308e-02 3.599e+00 
*LOADS
*RC U350:A1 1.175e-02
*RC U348:A2 1.836e-02
*RC U475:B 2.536e-02
*END

*R_NET n289 6.936e+00
*DRIVER U322:ZN
*CELL XNOR2_X1
*C2_R1_C1 3.468e+00 2.308e-02 3.468e+00 
*LOADS
*RC U350:A2 1.152e-02
*RC U348:A1 1.738e-02
*RC U474:A 2.446e-02
*END

*R_NET n290 3.224e+00
*DRIVER U330:ZN
*CELL XNOR2_X1
*C2_R1_C1 1.612e+00 6.236e-03 1.612e+00 
*LOADS
*RC U329:B 2.010e-02
*END

*R_NET n291 2.187e+00
*DRIVER U336:ZN
*CELL NAND2_X1
*C2_R1_C1 1.093e+00 6.236e-03 1.093e+00 
*LOADS
*RC U335:A1 1.364e-02
*END

*R_NET n292 2.314e+00
*DRIVER U337:ZN
*CELL NAND2_X1
*C2_R1_C1 1.157e+00 6.236e-03 1.157e+00 
*LOADS
*RC U335:A2 1.443e-02
*END

*R_NET n293 5.372e+00
*DRIVER U560:ZN
*CELL AND2_X1
*C2_R1_C1 2.686e+00 1.407e-02 2.686e+00 
*LOADS
*RC U323:A 2.213e-02
*RC U337:A1 1.566e-02
*END

*R_NET n294 2.314e+00
*DRIVER U338:ZN
*CELL OR2_X1
*C2_R1_C1 1.157e+00 6.236e-03 1.157e+00 
*LOADS
*RC U337:A2 1.443e-02
*END

*R_NET n295 7.198e+00
*DRIVER U331:ZN
*CELL NAND2_X1
*C2_R1_C1 3.599e+00 2.308e-02 3.599e+00 
*LOADS
*RC U323:B 2.536e-02
*RC U338:A1 1.175e-02
*RC U336:A2 1.836e-02
*END

*R_NET n296 6.936e+00
*DRIVER U298:Z
*CELL XOR2_X1
*C2_R1_C1 3.468e+00 2.308e-02 3.468e+00 
*LOADS
*RC U322:A 2.446e-02
*RC U338:A2 1.152e-02
*RC U336:A1 1.738e-02
*END

*R_NET n297 3.106e+00
*DRIVER U321:ZN
*CELL XNOR2_X1
*C2_R1_C1 1.553e+00 6.236e-03 1.553e+00 
*LOADS
*RC U320:A 1.937e-02
*END

*R_NET n298 3.383e+00
*DRIVER U404:ZN
*CELL XNOR2_X1
*C2_R1_C1 1.692e+00 6.236e-03 1.692e+00 
*LOADS
*RC U292:B 2.110e-02
*END

*R_NET n299 5.478e+00
*DRIVER U554:ZN
*CELL AND2_X1
*C2_R1_C1 2.739e+00 1.407e-02 2.739e+00 
*LOADS
*RC U403:B 2.296e-02
*RC U462:A1 1.566e-02
*END

*R_NET n300 2.314e+00
*DRIVER U463:ZN
*CELL NAND2_X1
*C2_R1_C1 1.157e+00 6.236e-03 1.157e+00 
*LOADS
*RC U462:A2 1.443e-02
*END

*R_NET n301 5.347e+00
*DRIVER U488:ZN
*CELL AND2_X1
*C2_R1_C1 2.674e+00 1.407e-02 2.674e+00 
*LOADS
*RC U463:A1 1.566e-02
*RC U299:A 2.195e-02
*END

*R_NET n302 7.042e+00
*DRIVER U531:ZN
*CELL NAND2_X1
*C2_R1_C1 3.521e+00 2.308e-02 3.521e+00 
*LOADS
*RC U403:A 2.446e-02
*RC U463:A2 1.836e-02
*RC U532:A1 1.136e-02
*END

*R_NET n303 1.404e+00
*DRIVER U497:ZN
*CELL OR2_X1
*C2_R1_C1 7.019e-01 6.236e-03 7.019e-01 
*LOADS
*RC U496:A1 8.754e-03
*END

*R_NET n304 1.465e+00
*DRIVER U498:ZN
*CELL NAND2_X1
*C2_R1_C1 7.324e-01 6.236e-03 7.324e-01 
*LOADS
*RC U496:A2 9.134e-03
*END

*R_NET n305 2.314e+00
*DRIVER U499:ZN
*CELL NAND2_X1
*C2_R1_C1 1.157e+00 6.236e-03 1.157e+00 
*LOADS
*RC U498:A2 1.443e-02
*END

*R_NET n306 6.936e+00
*DRIVER U442:ZN
*CELL AND2_X1
*C2_R1_C1 3.468e+00 2.308e-02 3.468e+00 
*LOADS
*RC U425:A 2.446e-02
*RC U499:A1 1.738e-02
*RC U497:A2 1.152e-02
*END

*R_NET n307 7.198e+00
*DRIVER U299:Z
*CELL XOR2_X1
*C2_R1_C1 3.599e+00 2.308e-02 3.599e+00 
*LOADS
*RC U424:B 2.536e-02
*RC U499:A2 1.836e-02
*RC U497:A1 1.175e-02
*END

*R_NET n308 1.404e+00
*DRIVER U396:ZN
*CELL NAND2_X1
*C2_R1_C1 7.019e-01 6.236e-03 7.019e-01 
*LOADS
*RC U395:A1 8.754e-03
*END

*R_NET n309 1.465e+00
*DRIVER U397:ZN
*CELL NAND2_X1
*C2_R1_C1 7.324e-01 6.236e-03 7.324e-01 
*LOADS
*RC U395:A2 9.134e-03
*END

*R_NET n310 5.649e+00
*DRIVER U569:ZN
*CELL AND2_X1
*C2_R1_C1 2.825e+00 1.407e-02 2.825e+00 
*LOADS
*RC U397:A1 1.566e-02
*RC U300:B 2.408e-02
*END

*R_NET n311 2.314e+00
*DRIVER U398:ZN
*CELL OR2_X1
*C2_R1_C1 1.157e+00 6.236e-03 1.157e+00 
*LOADS
*RC U397:A2 1.443e-02
*END

*R_NET n312 7.241e+00
*DRIVER U424:ZN
*CELL XNOR2_X1
*C2_R1_C1 3.621e+00 2.308e-02 3.621e+00 
*LOADS
*RC U398:A1 1.175e-02
*RC U396:A1 1.738e-02
*RC U298:B 2.659e-02
*END

*R_NET n313 7.038e+00
*DRIVER U359:ZN
*CELL NAND2_X1
*C2_R1_C1 3.519e+00 2.308e-02 3.519e+00 
*LOADS
*RC U398:A2 1.152e-02
*RC U396:A2 1.836e-02
*RC U300:A 2.426e-02
*END

*R_NET n314 3.224e+00
*DRIVER U475:ZN
*CELL XNOR2_X1
*C2_R1_C1 1.612e+00 6.236e-03 1.612e+00 
*LOADS
*RC U474:B 2.010e-02
*END

*R_NET n315 2.187e+00
*DRIVER U427:ZN
*CELL NAND2_X1
*C2_R1_C1 1.093e+00 6.236e-03 1.093e+00 
*LOADS
*RC U426:A1 1.364e-02
*END

*R_NET n316 2.314e+00
*DRIVER U428:ZN
*CELL NAND2_X1
*C2_R1_C1 1.157e+00 6.236e-03 1.157e+00 
*LOADS
*RC U426:A2 1.443e-02
*END

*R_NET n317 2.314e+00
*DRIVER U429:ZN
*CELL OR2_X1
*C2_R1_C1 1.157e+00 6.236e-03 1.157e+00 
*LOADS
*RC U428:A2 1.443e-02
*END

*R_NET n318 3.106e+00
*DRIVER U419:ZN
*CELL XNOR2_X1
*C2_R1_C1 1.553e+00 6.236e-03 1.553e+00 
*LOADS
*RC U418:A 1.937e-02
*END

*R_NET n319 7.198e+00
*DRIVER U297:Z
*CELL XOR2_X1
*C2_R1_C1 3.599e+00 2.308e-02 3.599e+00 
*LOADS
*RC U334:A2 1.836e-02
*RC U332:A1 1.175e-02
*RC U418:B 2.536e-02
*END

*R_NET n320 6.936e+00
*DRIVER U438:ZN
*CELL AND2_X1
*C2_R1_C1 3.468e+00 2.308e-02 3.468e+00 
*LOADS
*RC U334:A1 1.738e-02
*RC U332:A2 1.152e-02
*RC U419:A 2.446e-02
*END

*R_NET n321 5.478e+00
*DRIVER U555:ZN
*CELL AND2_X1
*C2_R1_C1 2.739e+00 1.407e-02 2.739e+00 
*LOADS
*RC U333:A1 1.566e-02
*RC U419:B 2.296e-02
*END

*R_NET n322 2.187e+00
*DRIVER U459:ZN
*CELL OR2_X1
*C2_R1_C1 1.093e+00 6.236e-03 1.093e+00 
*LOADS
*RC U458:A1 1.364e-02
*END

*R_NET n323 2.314e+00
*DRIVER U460:ZN
*CELL NAND2_X1
*C2_R1_C1 1.157e+00 6.236e-03 1.157e+00 
*LOADS
*RC U458:A2 1.443e-02
*END

*R_NET n324 2.314e+00
*DRIVER U461:ZN
*CELL NAND2_X1
*C2_R1_C1 1.157e+00 6.236e-03 1.157e+00 
*LOADS
*RC U460:A2 1.443e-02
*END

*R_NET n325 3.081e+00
*DRIVER U294:Z
*CELL XOR2_X1
*C2_R1_C1 1.541e+00 6.236e-03 1.541e+00 
*LOADS
*RC U293:A 1.921e-02
*END

*R_NET n326 5.649e+00
*DRIVER U420:ZN
*CELL XNOR2_X1
*C2_R1_C1 2.825e+00 1.407e-02 2.825e+00 
*LOADS
*RC U440:A1 1.566e-02
*RC U293:B 2.408e-02
*END

*R_NET n327 7.067e+00
*DRIVER U454:ZN
*CELL NAND2_X1
*C2_R1_C1 3.533e+00 2.308e-02 3.533e+00 
*LOADS
*RC U441:A1 1.175e-02
*RC U439:A2 1.836e-02
*RC U294:A 2.426e-02
*END

*R_NET n328 7.213e+00
*DRIVER U557:ZN
*CELL AND2_X1
*C2_R1_C1 3.606e+00 2.308e-02 3.606e+00 
*LOADS
*RC U441:A2 1.152e-02
*RC U439:A1 1.738e-02
*RC U294:B 2.659e-02
*END

*R_NET n329 3.106e+00
*DRIVER U411:ZN
*CELL XNOR2_X1
*C2_R1_C1 1.553e+00 6.236e-03 1.553e+00 
*LOADS
*RC U410:A 1.937e-02
*END

*R_NET n330 5.478e+00
*DRIVER U295:Z
*CELL XOR2_X1
*C2_R1_C1 2.739e+00 1.407e-02 2.739e+00 
*LOADS
*RC U410:B 2.296e-02
*RC U456:A1 1.566e-02
*END

*R_NET n331 6.965e+00
*DRIVER U544:ZN
*CELL AND3_X1
*C2_R1_C1 3.482e+00 2.308e-02 3.482e+00 
*LOADS
*RC U411:A 2.446e-02
*RC U457:A1 1.175e-02
*RC U455:A1 1.738e-02
*END

*R_NET n332 7.169e+00
*DRIVER U552:ZN
*CELL AND2_X1
*C2_R1_C1 3.584e+00 2.308e-02 3.584e+00 
*LOADS
*RC U411:B 2.536e-02
*RC U457:A2 1.152e-02
*RC U455:A2 1.836e-02
*END

*R_NET n333 3.224e+00
*DRIVER U323:ZN
*CELL XNOR2_X1
*C2_R1_C1 1.612e+00 6.236e-03 1.612e+00 
*LOADS
*RC U322:B 2.010e-02
*END

*R_NET n334 2.187e+00
*DRIVER U332:ZN
*CELL OR2_X1
*C2_R1_C1 1.093e+00 6.236e-03 1.093e+00 
*LOADS
*RC U331:A1 1.364e-02
*END

*R_NET n335 2.314e+00
*DRIVER U333:ZN
*CELL NAND2_X1
*C2_R1_C1 1.157e+00 6.236e-03 1.157e+00 
*LOADS
*RC U331:A2 1.443e-02
*END

*R_NET n336 2.314e+00
*DRIVER U334:ZN
*CELL NAND2_X1
*C2_R1_C1 1.157e+00 6.236e-03 1.157e+00 
*LOADS
*RC U333:A2 1.443e-02
*END

*R_NET n337 1.404e+00
*DRIVER U439:ZN
*CELL NAND2_X1
*C2_R1_C1 7.019e-01 6.236e-03 7.019e-01 
*LOADS
*RC U438:A1 8.754e-03
*END

*R_NET n338 1.465e+00
*DRIVER U440:ZN
*CELL NAND2_X1
*C2_R1_C1 7.324e-01 6.236e-03 7.324e-01 
*LOADS
*RC U438:A2 9.134e-03
*END

*R_NET n339 2.314e+00
*DRIVER U441:ZN
*CELL OR2_X1
*C2_R1_C1 1.157e+00 6.236e-03 1.157e+00 
*LOADS
*RC U440:A2 1.443e-02
*END

*R_NET n340 3.106e+00
*DRIVER U421:ZN
*CELL XNOR2_X1
*C2_R1_C1 1.553e+00 6.236e-03 1.553e+00 
*LOADS
*RC U420:A 1.937e-02
*END

*R_NET n341 7.198e+00
*DRIVER U305:Z
*CELL XOR2_X1
*C2_R1_C1 3.599e+00 2.308e-02 3.599e+00 
*LOADS
*RC U370:A2 1.836e-02
*RC U368:A1 1.175e-02
*RC U420:B 2.536e-02
*END

*R_NET n342 6.936e+00
*DRIVER U434:ZN
*CELL AND2_X1
*C2_R1_C1 3.468e+00 2.308e-02 3.468e+00 
*LOADS
*RC U370:A1 1.738e-02
*RC U368:A2 1.152e-02
*RC U421:A 2.446e-02
*END

*R_NET n343 5.478e+00
*DRIVER U553:ZN
*CELL AND2_X1
*C2_R1_C1 2.739e+00 1.407e-02 2.739e+00 
*LOADS
*RC U369:A1 1.566e-02
*RC U421:B 2.296e-02
*END

*R_NET n344 2.187e+00
*DRIVER U455:ZN
*CELL NAND2_X1
*C2_R1_C1 1.093e+00 6.236e-03 1.093e+00 
*LOADS
*RC U454:A1 1.364e-02
*END

*R_NET n345 2.314e+00
*DRIVER U456:ZN
*CELL NAND2_X1
*C2_R1_C1 1.157e+00 6.236e-03 1.157e+00 
*LOADS
*RC U454:A2 1.443e-02
*END

*R_NET n346 2.314e+00
*DRIVER U457:ZN
*CELL OR2_X1
*C2_R1_C1 1.157e+00 6.236e-03 1.157e+00 
*LOADS
*RC U456:A2 1.443e-02
*END

*R_NET n347 3.081e+00
*DRIVER U296:Z
*CELL XOR2_X1
*C2_R1_C1 1.541e+00 6.236e-03 1.541e+00 
*LOADS
*RC U295:A 1.921e-02
*END

*R_NET n348 5.649e+00
*DRIVER U301:Z
*CELL XOR2_X1
*C2_R1_C1 2.825e+00 1.407e-02 2.825e+00 
*LOADS
*RC U436:A1 1.566e-02
*RC U295:B 2.408e-02
*END

*R_NET n349 7.067e+00