*SPEF "IEEE 1481-1999"
*DESIGN "xnor_based_carry_lookahead_adder16"
*DATE "Wed Aug 19 11:23:53 2020"
*VENDOR "SYNOPSYS INC"
*PROGRAM "Synopsys Design Compiler cmos"
*VERSION "N-2017.09-SP3"
*DESIGN_FLOW "SYNTHESIS"
*DIVIDER /
*DELIMITER :
*BUS_DELIMITER []
*T_UNIT 1.0 NS
*C_UNIT 0.0010 PF
*R_UNIT 1000.0 KOHM
*L_UNIT 1.0 HENRY

*PORTS

add1_i\[15\] I *L 0.000e+00 *S 0.000e+00 0.000e+00 
add1_i\[14\] I *L 0.000e+00 *S 0.000e+00 0.000e+00 
add1_i\[13\] I *L 0.000e+00 *S 0.000e+00 0.000e+00 
add1_i\[12\] I *L 0.000e+00 *S 0.000e+00 0.000e+00 
add1_i\[11\] I *L 0.000e+00 *S 0.000e+00 0.000e+00 
add1_i\[10\] I *L 0.000e+00 *S 0.000e+00 0.000e+00 
add1_i\[9\] I *L 0.000e+00 *S 0.000e+00 0.000e+00 
add1_i\[8\] I *L 0.000e+00 *S 0.000e+00 0.000e+00 
add1_i\[7\] I *L 0.000e+00 *S 0.000e+00 0.000e+00 
add1_i\[6\] I *L 0.000e+00 *S 0.000e+00 0.000e+00 
add1_i\[5\] I *L 0.000e+00 *S 0.000e+00 0.000e+00 
add1_i\[4\] I *L 0.000e+00 *S 0.000e+00 0.000e+00 
add1_i\[3\] I *L 0.000e+00 *S 0.000e+00 0.000e+00 
add1_i\[2\] I *L 0.000e+00 *S 0.000e+00 0.000e+00 
add1_i\[1\] I *L 0.000e+00 *S 0.000e+00 0.000e+00 
add1_i\[0\] I *L 0.000e+00 *S 0.000e+00 0.000e+00 
add2_i\[15\] I *L 0.000e+00 *S 0.000e+00 0.000e+00 
add2_i\[14\] I *L 0.000e+00 *S 0.000e+00 0.000e+00 
add2_i\[13\] I *L 0.000e+00 *S 0.000e+00 0.000e+00 
add2_i\[12\] I *L 0.000e+00 *S 0.000e+00 0.000e+00 
add2_i\[11\] I *L 0.000e+00 *S 0.000e+00 0.000e+00 
add2_i\[10\] I *L 0.000e+00 *S 0.000e+00 0.000e+00 
add2_i\[9\] I *L 0.000e+00 *S 0.000e+00 0.000e+00 
add2_i\[8\] I *L 0.000e+00 *S 0.000e+00 0.000e+00 
add2_i\[7\] I *L 0.000e+00 *S 0.000e+00 0.000e+00 
add2_i\[6\] I *L 0.000e+00 *S 0.000e+00 0.000e+00 
add2_i\[5\] I *L 0.000e+00 *S 0.000e+00 0.000e+00 
add2_i\[4\] I *L 0.000e+00 *S 0.000e+00 0.000e+00 
add2_i\[3\] I *L 0.000e+00 *S 0.000e+00 0.000e+00 
add2_i\[2\] I *L 0.000e+00 *S 0.000e+00 0.000e+00 
add2_i\[1\] I *L 0.000e+00 *S 0.000e+00 0.000e+00 
add2_i\[0\] I *L 0.000e+00 *S 0.000e+00 0.000e+00 
result_o\[16\] O *L 1.000e-01 *S 1.851e-03 1.752e-03 
result_o\[15\] O *L 1.000e-01 *S 2.769e-03 1.850e-03 
result_o\[14\] O *L 1.000e-01 *S 2.769e-03 1.850e-03 
result_o\[13\] O *L 1.000e-01 *S 2.769e-03 1.850e-03 
result_o\[12\] O *L 1.000e-01 *S 2.769e-03 1.850e-03 
result_o\[11\] O *L 1.000e-01 *S 2.769e-03 1.850e-03 
result_o\[10\] O *L 1.000e-01 *S 2.769e-03 1.850e-03 
result_o\[9\] O *L 1.000e-01 *S 2.769e-03 1.850e-03 
result_o\[8\] O *L 1.000e-01 *S 2.769e-03 1.850e-03 
result_o\[7\] O *L 1.000e-01 *S 2.769e-03 1.850e-03 
result_o\[6\] O *L 1.000e-01 *S 2.769e-03 1.850e-03 
result_o\[5\] O *L 1.000e-01 *S 2.769e-03 1.850e-03 
result_o\[4\] O *L 1.000e-01 *S 2.769e-03 1.850e-03 
result_o\[3\] O *L 1.000e-01 *S 1.406e-03 1.026e-03 
result_o\[2\] O *L 1.000e-01 *S 1.406e-03 1.026e-03 
result_o\[1\] O *L 1.000e-01 *S 2.946e-03 1.653e-03 
result_o\[0\] O *L 1.000e-01 *S 1.851e-03 1.752e-03 

*R_NET add1_i\[15\] 7.213e+00
*DRIVER add1_i\[15\]
*CELL NULL
*C2_R1_C1 3.606e+00 2.308e-02 3.606e+00 
*LOADS
*RC U220:A2 1.152e-02
*RC U218:A1 1.738e-02
*RC U148:B 2.659e-02
*END

*R_NET add1_i\[14\] 7.213e+00
*DRIVER add1_i\[14\]
*CELL NULL
*C2_R1_C1 3.606e+00 2.308e-02 3.606e+00 
*LOADS
*RC U176:A2 1.152e-02
*RC U174:A1 1.738e-02
*RC U150:B 2.659e-02
*END

*R_NET add1_i\[13\] 7.213e+00
*DRIVER add1_i\[13\]
*CELL NULL
*C2_R1_C1 3.606e+00 2.308e-02 3.606e+00 
*LOADS
*RC U172:A2 1.152e-02
*RC U170:A1 1.738e-02
*RC U152:B 2.659e-02
*END

*R_NET add1_i\[12\] 7.213e+00
*DRIVER add1_i\[12\]
*CELL NULL
*C2_R1_C1 3.606e+00 2.308e-02 3.606e+00 
*LOADS
*RC U168:A2 1.152e-02
*RC U166:A1 1.738e-02
*RC U154:B 2.659e-02
*END

*R_NET add1_i\[11\] 7.213e+00
*DRIVER add1_i\[11\]
*CELL NULL
*C2_R1_C1 3.606e+00 2.308e-02 3.606e+00 
*LOADS
*RC U216:A2 1.152e-02
*RC U214:A1 1.738e-02
*RC U156:B 2.659e-02
*END

*R_NET add1_i\[10\] 7.213e+00
*DRIVER add1_i\[10\]
*CELL NULL
*C2_R1_C1 3.606e+00 2.308e-02 3.606e+00 
*LOADS
*RC U212:A2 1.152e-02
*RC U210:A1 1.738e-02
*RC U158:B 2.659e-02
*END

*R_NET add1_i\[9\] 7.213e+00
*DRIVER add1_i\[9\]
*CELL NULL
*C2_R1_C1 3.606e+00 2.308e-02 3.606e+00 
*LOADS
*RC U208:A2 1.152e-02
*RC U206:A1 1.738e-02
*RC U133:B 2.659e-02
*END

*R_NET add1_i\[8\] 7.213e+00
*DRIVER add1_i\[8\]
*CELL NULL
*C2_R1_C1 3.606e+00 2.308e-02 3.606e+00 
*LOADS
*RC U204:A2 1.152e-02
*RC U202:A1 1.738e-02
*RC U135:B 2.659e-02
*END

*R_NET add1_i\[7\] 7.213e+00
*DRIVER add1_i\[7\]
*CELL NULL
*C2_R1_C1 3.606e+00 2.308e-02 3.606e+00 
*LOADS
*RC U200:A2 1.152e-02
*RC U198:A1 1.738e-02
*RC U137:B 2.659e-02
*END

*R_NET add1_i\[6\] 7.213e+00
*DRIVER add1_i\[6\]
*CELL NULL
*C2_R1_C1 3.606e+00 2.308e-02 3.606e+00 
*LOADS
*RC U196:A2 1.152e-02
*RC U194:A1 1.738e-02
*RC U139:B 2.659e-02
*END

*R_NET add1_i\[5\] 7.213e+00
*DRIVER add1_i\[5\]
*CELL NULL
*C2_R1_C1 3.606e+00 2.308e-02 3.606e+00 
*LOADS
*RC U192:A2 1.152e-02
*RC U190:A1 1.738e-02
*RC U141:B 2.659e-02
*END

*R_NET add1_i\[4\] 7.213e+00
*DRIVER add1_i\[4\]
*CELL NULL
*C2_R1_C1 3.606e+00 2.308e-02 3.606e+00 
*LOADS
*RC U164:A2 1.152e-02
*RC U162:A1 1.738e-02
*RC U143:B 2.659e-02
*END

*R_NET add1_i\[3\] 7.041e+00
*DRIVER add1_i\[3\]
*CELL NULL
*C2_R1_C1 3.521e+00 2.308e-02 3.521e+00 
*LOADS
*RC U188:A2 1.152e-02
*RC U186:A1 1.738e-02
*RC U225:B 2.536e-02
*END

*R_NET add1_i\[2\] 7.041e+00
*DRIVER add1_i\[2\]
*CELL NULL
*C2_R1_C1 3.521e+00 2.308e-02 3.521e+00 
*LOADS
*RC U184:A2 1.152e-02
*RC U182:A1 1.738e-02
*RC U223:B 2.536e-02
*END

*R_NET add1_i\[1\] 7.213e+00
*DRIVER add1_i\[1\]
*CELL NULL
*C2_R1_C1 3.606e+00 2.308e-02 3.606e+00 
*LOADS
*RC U180:A2 1.152e-02
*RC U178:A1 1.738e-02
*RC U146:B 2.659e-02
*END

*R_NET add1_i\[0\] 4.669e+00
*DRIVER add1_i\[0\]
*CELL NULL
*C2_R1_C1 2.334e+00 1.407e-02 2.334e+00 
*LOADS
*RC U160:A2 1.628e-02
*RC U227:A2 1.656e-02
*END

*R_NET add2_i\[15\] 5.347e+00
*DRIVER add2_i\[15\]
*CELL NULL
*C2_R1_C1 2.674e+00 1.407e-02 2.674e+00 
*LOADS
*RC U219:A1 1.566e-02
*RC U148:A 2.195e-02
*END

*R_NET add2_i\[14\] 5.347e+00
*DRIVER add2_i\[14\]
*CELL NULL
*C2_R1_C1 2.674e+00 1.407e-02 2.674e+00 
*LOADS
*RC U175:A1 1.566e-02
*RC U150:A 2.195e-02
*END

*R_NET add2_i\[13\] 5.347e+00
*DRIVER add2_i\[13\]
*CELL NULL
*C2_R1_C1 2.674e+00 1.407e-02 2.674e+00 
*LOADS
*RC U171:A1 1.566e-02
*RC U152:A 2.195e-02
*END

*R_NET add2_i\[12\] 5.347e+00
*DRIVER add2_i\[12\]
*CELL NULL
*C2_R1_C1 2.674e+00 1.407e-02 2.674e+00 
*LOADS
*RC U167:A1 1.566e-02
*RC U154:A 2.195e-02
*END

*R_NET add2_i\[11\] 5.347e+00
*DRIVER add2_i\[11\]
*CELL NULL
*C2_R1_C1 2.674e+00 1.407e-02 2.674e+00 
*LOADS
*RC U215:A1 1.566e-02
*RC U156:A 2.195e-02
*END

*R_NET add2_i\[10\] 5.347e+00
*DRIVER add2_i\[10\]
*CELL NULL
*C2_R1_C1 2.674e+00 1.407e-02 2.674e+00 
*LOADS
*RC U211:A1 1.566e-02
*RC U158:A 2.195e-02
*END

*R_NET add2_i\[9\] 5.347e+00
*DRIVER add2_i\[9\]
*CELL NULL
*C2_R1_C1 2.674e+00 1.407e-02 2.674e+00 
*LOADS
*RC U207:A1 1.566e-02
*RC U133:A 2.195e-02
*END

*R_NET add2_i\[8\] 5.347e+00
*DRIVER add2_i\[8\]
*CELL NULL
*C2_R1_C1 2.674e+00 1.407e-02 2.674e+00 
*LOADS
*RC U203:A1 1.566e-02
*RC U135:A 2.195e-02
*END

*R_NET add2_i\[7\] 5.347e+00
*DRIVER add2_i\[7\]
*CELL NULL
*C2_R1_C1 2.674e+00 1.407e-02 2.674e+00 
*LOADS
*RC U199:A1 1.566e-02
*RC U137:A 2.195e-02
*END

*R_NET add2_i\[6\] 5.347e+00
*DRIVER add2_i\[6\]
*CELL NULL
*C2_R1_C1 2.674e+00 1.407e-02 2.674e+00 
*LOADS
*RC U195:A1 1.566e-02
*RC U139:A 2.195e-02
*END

*R_NET add2_i\[5\] 5.347e+00
*DRIVER add2_i\[5\]
*CELL NULL
*C2_R1_C1 2.674e+00 1.407e-02 2.674e+00 
*LOADS
*RC U191:A1 1.566e-02
*RC U141:A 2.195e-02
*END

*R_NET add2_i\[4\] 5.347e+00
*DRIVER add2_i\[4\]
*CELL NULL
*C2_R1_C1 2.674e+00 1.407e-02 2.674e+00 
*LOADS
*RC U163:A1 1.566e-02
*RC U143:A 2.195e-02
*END

*R_NET add2_i\[3\] 5.372e+00
*DRIVER add2_i\[3\]
*CELL NULL
*C2_R1_C1 2.686e+00 1.407e-02 2.686e+00 
*LOADS
*RC U187:A1 1.566e-02
*RC U225:A 2.213e-02
*END

*R_NET add2_i\[2\] 5.372e+00
*DRIVER add2_i\[2\]
*CELL NULL
*C2_R1_C1 2.686e+00 1.407e-02 2.686e+00 
*LOADS
*RC U183:A1 1.566e-02
*RC U223:A 2.213e-02
*END

*R_NET add2_i\[1\] 5.347e+00
*DRIVER add2_i\[1\]
*CELL NULL
*C2_R1_C1 2.674e+00 1.407e-02 2.674e+00 
*LOADS
*RC U179:A1 1.566e-02
*RC U146:A 2.195e-02
*END

*R_NET add2_i\[0\] 4.679e+00
*DRIVER add2_i\[0\]
*CELL NULL
*C2_R1_C1 2.339e+00 1.407e-02 2.339e+00 
*LOADS
*RC U160:A1 1.725e-02
*RC U227:A1 1.566e-02
*END

*R_NET result_o\[16\] 4.097e-01
*DRIVER U217:ZN
*CELL NAND2_X1
*C2_R1_C1 2.049e-01 6.236e-03 2.049e-01 
*LOADS
*RC result_o\[16\] 2.555e-03
*END

*R_NET result_o\[15\] 4.097e-01
*DRIVER U147:Z
*CELL XOR2_X1
*C2_R1_C1 2.049e-01 6.236e-03 2.049e-01 
*LOADS
*RC result_o\[15\] 2.555e-03
*END

*R_NET result_o\[14\] 4.097e-01
*DRIVER U149:Z
*CELL XOR2_X1
*C2_R1_C1 2.049e-01 6.236e-03 2.049e-01 
*LOADS
*RC result_o\[14\] 2.555e-03
*END

*R_NET result_o\[13\] 4.097e-01
*DRIVER U151:Z
*CELL XOR2_X1
*C2_R1_C1 2.049e-01 6.236e-03 2.049e-01 
*LOADS
*RC result_o\[13\] 2.555e-03
*END

*R_NET result_o\[12\] 4.097e-01
*DRIVER U153:Z
*CELL XOR2_X1
*C2_R1_C1 2.049e-01 6.236e-03 2.049e-01 
*LOADS
*RC result_o\[12\] 2.555e-03
*END

*R_NET result_o\[11\] 4.097e-01
*DRIVER U155:Z
*CELL XOR2_X1
*C2_R1_C1 2.049e-01 6.236e-03 2.049e-01 
*LOADS
*RC result_o\[11\] 2.555e-03
*END

*R_NET result_o\[10\] 4.097e-01
*DRIVER U157:Z
*CELL XOR2_X1
*C2_R1_C1 2.049e-01 6.236e-03 2.049e-01 
*LOADS
*RC result_o\[10\] 2.555e-03
*END

*R_NET result_o\[9\] 4.097e-01
*DRIVER U132:Z
*CELL XOR2_X1
*C2_R1_C1 2.049e-01 6.236e-03 2.049e-01 
*LOADS
*RC result_o\[9\] 2.555e-03
*END

*R_NET result_o\[8\] 4.097e-01
*DRIVER U134:Z
*CELL XOR2_X1
*C2_R1_C1 2.049e-01 6.236e-03 2.049e-01 
*LOADS
*RC result_o\[8\] 2.555e-03
*END

*R_NET result_o\[7\] 4.097e-01
*DRIVER U136:Z
*CELL XOR2_X1
*C2_R1_C1 2.049e-01 6.236e-03 2.049e-01 
*LOADS
*RC result_o\[7\] 2.555e-03
*END

*R_NET result_o\[6\] 4.097e-01
*DRIVER U138:Z
*CELL XOR2_X1
*C2_R1_C1 2.049e-01 6.236e-03 2.049e-01 
*LOADS
*RC result_o\[6\] 2.555e-03
*END

*R_NET result_o\[5\] 4.097e-01
*DRIVER U140:Z
*CELL XOR2_X1
*C2_R1_C1 2.049e-01 6.236e-03 2.049e-01 
*LOADS
*RC result_o\[5\] 2.555e-03
*END

*R_NET result_o\[4\] 4.097e-01
*DRIVER U142:Z
*CELL XOR2_X1
*C2_R1_C1 2.049e-01 6.236e-03 2.049e-01 
*LOADS
*RC result_o\[4\] 2.555e-03
*END

*R_NET result_o\[3\] 4.097e-01
*DRIVER U224:ZN
*CELL AND2_X1
*C2_R1_C1 2.049e-01 6.236e-03 2.049e-01 
*LOADS
*RC result_o\[3\] 2.555e-03
*END

*R_NET result_o\[2\] 4.097e-01
*DRIVER U222:ZN
*CELL AND2_X1
*C2_R1_C1 2.049e-01 6.236e-03 2.049e-01 
*LOADS
*RC result_o\[2\] 2.555e-03
*END

*R_NET result_o\[1\] 4.097e-01
*DRIVER U221:ZN
*CELL NOR2_X1
*C2_R1_C1 2.049e-01 6.236e-03 2.049e-01 
*LOADS
*RC result_o\[1\] 2.555e-03
*END

*R_NET result_o\[0\] 4.097e-01
*DRIVER U226:ZN
*CELL NAND2_X1
*C2_R1_C1 2.049e-01 6.236e-03 2.049e-01 
*LOADS
*RC result_o\[0\] 2.555e-03
*END

*R_NET n63 6.173e+00
*DRIVER U159:ZN
*CELL INV_X1
*C2_R1_C1 3.086e+00 2.308e-02 3.086e+00 
*LOADS
*RC U180:A1 1.175e-02
*RC U178:A2 1.836e-02
*RC U226:A1 1.738e-02
*END

*R_NET n64 7.067e+00
*DRIVER U201:ZN
*CELL NAND2_X1
*C2_R1_C1 3.533e+00 2.308e-02 3.533e+00 
*LOADS
*RC U208:A1 1.175e-02
*RC U206:A2 1.836e-02
*RC U132:A 2.426e-02
*END

*R_NET n65 3.383e+00
*DRIVER U133:Z
*CELL XOR2_X1
*C2_R1_C1 1.692e+00 6.236e-03 1.692e+00 
*LOADS
*RC U132:B 2.110e-02
*END

*R_NET n66 7.067e+00
*DRIVER U197:ZN
*CELL NAND2_X1
*C2_R1_C1 3.533e+00 2.308e-02 3.533e+00 
*LOADS
*RC U204:A1 1.175e-02
*RC U202:A2 1.836e-02
*RC U134:A 2.426e-02
*END

*R_NET n67 3.383e+00
*DRIVER U135:Z
*CELL XOR2_X1
*C2_R1_C1 1.692e+00 6.236e-03 1.692e+00 
*LOADS
*RC U134:B 2.110e-02
*END

*R_NET n68 7.067e+00
*DRIVER U193:ZN
*CELL NAND2_X1
*C2_R1_C1 3.533e+00 2.308e-02 3.533e+00 
*LOADS
*RC U200:A1 1.175e-02
*RC U198:A2 1.836e-02
*RC U136:A 2.426e-02
*END

*R_NET n69 3.383e+00
*DRIVER U137:Z
*CELL XOR2_X1
*C2_R1_C1 1.692e+00 6.236e-03 1.692e+00 
*LOADS
*RC U136:B 2.110e-02
*END

*R_NET n70 7.067e+00
*DRIVER U189:ZN
*CELL NAND2_X1
*C2_R1_C1 3.533e+00 2.308e-02 3.533e+00 
*LOADS
*RC U196:A1 1.175e-02
*RC U194:A2 1.836e-02
*RC U138:A 2.426e-02
*END

*R_NET n71 3.383e+00
*DRIVER U139:Z
*CELL XOR2_X1
*C2_R1_C1 1.692e+00 6.236e-03 1.692e+00 
*LOADS
*RC U138:B 2.110e-02
*END

*R_NET n72 7.067e+00
*DRIVER U161:ZN
*CELL NAND2_X1
*C2_R1_C1 3.533e+00 2.308e-02 3.533e+00 
*LOADS
*RC U192:A1 1.175e-02
*RC U190:A2 1.836e-02
*RC U140:A 2.426e-02
*END

*R_NET n73 3.383e+00
*DRIVER U141:Z
*CELL XOR2_X1
*C2_R1_C1 1.692e+00 6.236e-03 1.692e+00 
*LOADS
*RC U140:B 2.110e-02
*END

*R_NET n74 7.067e+00
*DRIVER U185:ZN
*CELL NAND2_X1
*C2_R1_C1 3.533e+00 2.308e-02 3.533e+00 
*LOADS
*RC U164:A1 1.175e-02
*RC U162:A2 1.836e-02
*RC U142:A 2.426e-02
*END

*R_NET n75 3.383e+00
*DRIVER U143:Z
*CELL XOR2_X1
*C2_R1_C1 1.692e+00 6.236e-03 1.692e+00 
*LOADS
*RC U142:B 2.110e-02
*END

*R_NET n77 5.390e+00
*DRIVER U181:ZN
*CELL NAND2_X1
*C2_R1_C1 2.695e+00 2.308e-02 2.695e+00 
*LOADS
*RC U188:A1 1.175e-02
*RC U186:A2 1.836e-02
*RC U224:A1 1.136e-02
*END

*R_NET n79 5.390e+00
*DRIVER U177:ZN
*CELL NAND2_X1
*C2_R1_C1 2.695e+00 2.308e-02 2.695e+00 
*LOADS
*RC U184:A1 1.175e-02
*RC U182:A2 1.836e-02
*RC U222:A1 1.136e-02
*END

*R_NET n80 4.849e+00
*DRIVER U160:ZN
*CELL NOR2_X1
*C2_R1_C1 2.425e+00 1.407e-02 2.425e+00 
*LOADS
*RC U159:A 1.686e-02
*RC U221:A1 1.725e-02
*END

*R_NET n81 2.275e+00
*DRIVER U146:Z
*CELL XOR2_X1
*C2_R1_C1 1.138e+00 6.236e-03 1.138e+00 
*LOADS
*RC U221:A2 1.419e-02
*END

*R_NET n82 2.187e+00
*DRIVER U218:ZN
*CELL NAND2_X1
*C2_R1_C1 1.093e+00 6.236e-03 1.093e+00 
*LOADS
*RC U217:A1 1.364e-02
*END

*R_NET n83 2.314e+00
*DRIVER U219:ZN
*CELL NAND2_X1
*C2_R1_C1 1.157e+00 6.236e-03 1.157e+00 
*LOADS
*RC U217:A2 1.443e-02
*END

*R_NET n84 2.314e+00
*DRIVER U220:ZN
*CELL OR2_X1
*C2_R1_C1 1.157e+00 6.236e-03 1.157e+00 
*LOADS
*RC U219:A2 1.443e-02
*END

*R_NET n85 7.067e+00
*DRIVER U173:ZN
*CELL NAND2_X1
*C2_R1_C1 3.533e+00 2.308e-02 3.533e+00 
*LOADS
*RC U220:A1 1.175e-02
*RC U218:A2 1.836e-02
*RC U147:A 2.426e-02
*END

*R_NET n86 3.383e+00
*DRIVER U148:Z
*CELL XOR2_X1
*C2_R1_C1 1.692e+00 6.236e-03 1.692e+00 
*LOADS
*RC U147:B 2.110e-02
*END

*R_NET n87 2.187e+00
*DRIVER U174:ZN
*CELL NAND2_X1
*C2_R1_C1 1.093e+00 6.236e-03 1.093e+00 
*LOADS
*RC U173:A1 1.364e-02
*END

*R_NET n88 2.314e+00
*DRIVER U175:ZN
*CELL NAND2_X1
*C2_R1_C1 1.157e+00 6.236e-03 1.157e+00 
*LOADS
*RC U173:A2 1.443e-02
*END

*R_NET n89 2.314e+00
*DRIVER U176:ZN
*CELL OR2_X1
*C2_R1_C1 1.157e+00 6.236e-03 1.157e+00 
*LOADS
*RC U175:A2 1.443e-02
*END

*R_NET n90 7.067e+00
*DRIVER U169:ZN
*CELL NAND2_X1
*C2_R1_C1 3.533e+00 2.308e-02 3.533e+00 
*LOADS
*RC U176:A1 1.175e-02
*RC U174:A2 1.836e-02
*RC U149:A 2.426e-02
*END

*R_NET n91 3.383e+00
*DRIVER U150:Z
*CELL XOR2_X1
*C2_R1_C1 1.692e+00 6.236e-03 1.692e+00 
*LOADS
*RC U149:B 2.110e-02
*END

*R_NET n92 2.187e+00
*DRIVER U170:ZN
*CELL NAND2_X1
*C2_R1_C1 1.093e+00 6.236e-03 1.093e+00 
*LOADS
*RC U169:A1 1.364e-02
*END

*R_NET n93 2.314e+00
*DRIVER U171:ZN
*CELL NAND2_X1
*C2_R1_C1 1.157e+00 6.236e-03 1.157e+00 
*LOADS
*RC U169:A2 1.443e-02
*END

*R_NET n94 2.314e+00
*DRIVER U172:ZN
*CELL OR2_X1
*C2_R1_C1 1.157e+00 6.236e-03 1.157e+00 
*LOADS
*RC U171:A2 1.443e-02
*END

*R_NET n95 7.067e+00
*DRIVER U165:ZN
*CELL NAND2_X1
*C2_R1_C1 3.533e+00 2.308e-02 3.533e+00 
*LOADS
*RC U172:A1 1.175e-02
*RC U170:A2 1.836e-02
*RC U151:A 2.426e-02
*END

*R_NET n96 3.383e+00
*DRIVER U152:Z
*CELL XOR2_X1
*C2_R1_C1 1.692e+00 6.236e-03 1.692e+00 
*LOADS
*RC U151:B 2.110e-02
*END

*R_NET n97 2.187e+00
*DRIVER U166:ZN
*CELL NAND2_X1
*C2_R1_C1 1.093e+00 6.236e-03 1.093e+00 
*LOADS
*RC U165:A1 1.364e-02
*END

*R_NET n98 2.314e+00
*DRIVER U167:ZN
*CELL NAND2_X1
*C2_R1_C1 1.157e+00 6.236e-03 1.157e+00 
*LOADS
*RC U165:A2 1.443e-02
*END

*R_NET n99 2.314e+00
*DRIVER U168:ZN
*CELL OR2_X1
*C2_R1_C1 1.157e+00 6.236e-03 1.157e+00 
*LOADS
*RC U167:A2 1.443e-02
*END

*R_NET n100 7.067e+00
*DRIVER U213:ZN
*CELL NAND2_X1
*C2_R1_C1 3.533e+00 2.308e-02 3.533e+00 
*LOADS
*RC U168:A1 1.175e-02
*RC U166:A2 1.836e-02
*RC U153:A 2.426e-02
*END

*R_NET n101 3.383e+00
*DRIVER U154:Z
*CELL XOR2_X1
*C2_R1_C1 1.692e+00 6.236e-03 1.692e+00 
*LOADS
*RC U153:B 2.110e-02
*END

*R_NET n102 2.187e+00
*DRIVER U214:ZN
*CELL NAND2_X1
*C2_R1_C1 1.093e+00 6.236e-03 1.093e+00 
*LOADS
*RC U213:A1 1.364e-02
*END

*R_NET n103 2.314e+00
*DRIVER U215:ZN
*CELL NAND2_X1
*C2_R1_C1 1.157e+00 6.236e-03 1.157e+00 
*LOADS
*RC U213:A2 1.443e-02
*END

*R_NET n104 2.314e+00
*DRIVER U216:ZN
*CELL OR2_X1
*C2_R1_C1 1.157e+00 6.236e-03 1.157e+00 
*LOADS
*RC U215:A2 1.443e-02
*END

*R_NET n105 7.067e+00
*DRIVER U209:ZN
*CELL NAND2_X1
*C2_R1_C1 3.533e+00 2.308e-02 3.533e+00 
*LOADS
*RC U216:A1 1.175e-02
*RC U214:A2 1.836e-02
*RC U155:A 2.426e-02
*END

*R_NET n106 3.383e+00
*DRIVER U156:Z
*CELL XOR2_X1
*C2_R1_C1 1.692e+00 6.236e-03 1.692e+00 
*LOADS
*RC U155:B 2.110e-02
*END

*R_NET n107 2.187e+00
*DRIVER U210:ZN
*CELL NAND2_X1
*C2_R1_C1 1.093e+00 6.236e-03 1.093e+00 
*LOADS
*RC U209:A1 1.364e-02
*END

*R_NET n108 2.314e+00
*DRIVER U211:ZN
*CELL NAND2_X1
*C2_R1_C1 1.157e+00 6.236e-03 1.157e+00 
*LOADS
*RC U209:A2 1.443e-02
*END

*R_NET n109 2.314e+00
*DRIVER U212:ZN
*CELL OR2_X1
*C2_R1_C1 1.157e+00 6.236e-03 1.157e+00 
*LOADS
*RC U211:A2 1.443e-02
*END

*R_NET n110 7.067e+00
*DRIVER U205:ZN
*CELL NAND2_X1
*C2_R1_C1 3.533e+00 2.308e-02 3.533e+00 
*LOADS
*RC U212:A1 1.175e-02
*RC U210:A2 1.836e-02
*RC U157:A 2.426e-02
*END

*R_NET n111 3.383e+00
*DRIVER U158:Z
*CELL XOR2_X1
*C2_R1_C1 1.692e+00 6.236e-03 1.692e+00 
*LOADS
*RC U157:B 2.110e-02
*END

*R_NET n112 2.187e+00
*DRIVER U206:ZN
*CELL NAND2_X1
*C2_R1_C1 1.093e+00 6.236e-03 1.093e+00 
*LOADS
*RC U205:A1 1.364e-02
*END

*R_NET n113 2.314e+00
*DRIVER U207:ZN
*CELL NAND2_X1
*C2_R1_C1 1.157e+00 6.236e-03 1.157e+00 
*LOADS
*RC U205:A2 1.443e-02
*END

*R_NET n114 2.314e+00
*DRIVER U208:ZN
*CELL OR2_X1
*C2_R1_C1 1.157e+00 6.236e-03 1.157e+00 
*LOADS
*RC U207:A2 1.443e-02
*END

*R_NET n115 2.187e+00
*DRIVER U202:ZN
*CELL NAND2_X1
*C2_R1_C1 1.093e+00 6.236e-03 1.093e+00 
*LOADS
*RC U201:A1 1.364e-02
*END

*R_NET n116 2.314e+00
*DRIVER U203:ZN
*CELL NAND2_X1
*C2_R1_C1 1.157e+00 6.236e-03 1.157e+00 
*LOADS
*RC U201:A2 1.443e-02
*END

*R_NET n117 2.314e+00
*DRIVER U204:ZN
*CELL OR2_X1
*C2_R1_C1 1.157e+00 6.236e-03 1.157e+00 
*LOADS
*RC U203:A2 1.443e-02
*END

*R_NET n118 2.187e+00
*DRIVER U198:ZN
*CELL NAND2_X1
*C2_R1_C1 1.093e+00 6.236e-03 1.093e+00 
*LOADS
*RC U197:A1 1.364e-02
*END

*R_NET n119 2.314e+00
*DRIVER U199:ZN
*CELL NAND2_X1
*C2_R1_C1 1.157e+00 6.236e-03 1.157e+00 
*LOADS
*RC U197:A2 1.443e-02
*END

*R_NET n120 2.314e+00
*DRIVER U200:ZN
*CELL OR2_X1
*C2_R1_C1 1.157e+00 6.236e-03 1.157e+00 
*LOADS
*RC U199:A2 1.443e-02
*END

*R_NET n121 2.187e+00
*DRIVER U194:ZN
*CELL NAND2_X1
*C2_R1_C1 1.093e+00 6.236e-03 1.093e+00 
*LOADS
*RC U193:A1 1.364e-02
*END

*R_NET n122 2.314e+00
*DRIVER U195:ZN
*CELL NAND2_X1
*C2_R1_C1 1.157e+00 6.236e-03 1.157e+00 
*LOADS
*RC U193:A2 1.443e-02
*END

*R_NET n123 2.314e+00
*DRIVER U196:ZN
*CELL OR2_X1
*C2_R1_C1 1.157e+00 6.236e-03 1.157e+00 
*LOADS
*RC U195:A2 1.443e-02
*END

*R_NET n124 2.187e+00
*DRIVER U190:ZN
*CELL NAND2_X1
*C2_R1_C1 1.093e+00 6.236e-03 1.093e+00 
*LOADS
*RC U189:A1 1.364e-02
*END

*R_NET n125 2.314e+00
*DRIVER U191:ZN
*CELL NAND2_X1
*C2_R1_C1 1.157e+00 6.236e-03 1.157e+00 
*LOADS
*RC U189:A2 1.443e-02
*END

*R_NET n126 2.314e+00
*DRIVER U192:ZN
*CELL OR2_X1
*C2_R1_C1 1.157e+00 6.236e-03 1.157e+00 
*LOADS
*RC U191:A2 1.443e-02
*END

*R_NET n127 2.187e+00
*DRIVER U162:ZN
*CELL NAND2_X1
*C2_R1_C1 1.093e+00 6.236e-03 1.093e+00 
*LOADS
*RC U161:A1 1.364e-02
*END

*R_NET n128 2.314e+00
*DRIVER U163:ZN
*CELL NAND2_X1
*C2_R1_C1 1.157e+00 6.236e-03 1.157e+00 
*LOADS
*RC U161:A2 1.443e-02
*END

*R_NET n129 2.314e+00
*DRIVER U164:ZN
*CELL OR2_X1
*C2_R1_C1 1.157e+00 6.236e-03 1.157e+00 
*LOADS
*RC U163:A2 1.443e-02
*END

*R_NET n130 2.187e+00
*DRIVER U186:ZN
*CELL NAND2_X1
*C2_R1_C1 1.093e+00 6.236e-03 1.093e+00 
*LOADS
*RC U185:A1 1.364e-02
*END

*R_NET n131 2.314e+00
*DRIVER U187:ZN
*CELL NAND2_X1
*C2_R1_C1 1.157e+00 6.236e-03 1.157e+00 
*LOADS
*RC U185:A2 1.443e-02
*END

*R_NET n132 2.314e+00
*DRIVER U188:ZN
*CELL OR2_X1
*C2_R1_C1 1.157e+00 6.236e-03 1.157e+00 
*LOADS
*RC U187:A2 1.443e-02
*END

*R_NET n133 2.187e+00
*DRIVER U182:ZN
*CELL NAND2_X1
*C2_R1_C1 1.093e+00 6.236e-03 1.093e+00 
*LOADS
*RC U181:A1 1.364e-02
*END

*R_NET n134 2.314e+00
*DRIVER U183:ZN
*CELL NAND2_X1
*C2_R1_C1 1.157e+00 6.236e-03 1.157e+00 
*LOADS
*RC U181:A2 1.443e-02
*END

*R_NET n135 2.314e+00
*DRIVER U184:ZN
*CELL OR2_X1
*C2_R1_C1 1.157e+00 6.236e-03 1.157e+00 
*LOADS
*RC U183:A2 1.443e-02
*END

*R_NET n136 2.187e+00
*DRIVER U178:ZN
*CELL NAND2_X1
*C2_R1_C1 1.093e+00 6.236e-03 1.093e+00 
*LOADS
*RC U177:A1 1.364e-02
*END

*R_NET n137 2.314e+00
*DRIVER U179:ZN
*CELL NAND2_X1
*C2_R1_C1 1.157e+00 6.236e-03 1.157e+00 
*LOADS
*RC U177:A2 1.443e-02
*END

*R_NET n138 2.314e+00
*DRIVER U180:ZN
*CELL OR2_X1
*C2_R1_C1 1.157e+00 6.236e-03 1.157e+00 
*LOADS
*RC U179:A2 1.443e-02
*END

*R_NET n139 2.314e+00
*DRIVER U227:ZN
*CELL NAND2_X1
*C2_R1_C1 1.157e+00 6.236e-03 1.157e+00 
*LOADS
*RC U226:A2 1.443e-02
*END

*R_NET n140 1.465e+00
*DRIVER U223:ZN
*CELL XNOR2_X1
*C2_R1_C1 7.324e-01 6.236e-03 7.324e-01 
*LOADS
*RC U222:A2 9.134e-03
*END

*R_NET n141 1.465e+00
*DRIVER U225:ZN
*CELL XNOR2_X1
*C2_R1_C1 7.324e-01 6.236e-03 7.324e-01 
*LOADS
*RC U224:A2 9.134e-03
*END
