*SPEF "IEEE 1481-1999"
*DESIGN "almost_correct_adder32"
*DATE "Sat Aug 29 20:44:45 2020"
*VENDOR "SYNOPSYS INC"
*PROGRAM "Synopsys Design Compiler cmos"
*VERSION "N-2017.09-SP3"
*DESIGN_FLOW "SYNTHESIS"
*DIVIDER /
*DELIMITER :
*BUS_DELIMITER []
*T_UNIT 1.0 NS
*C_UNIT 0.0010 PF
*R_UNIT 1000.0 KOHM
*L_UNIT 1.0 HENRY

*PORTS

add1_i\[31\] I *L 0.000e+00 *S 0.000e+00 0.000e+00 
add1_i\[30\] I *L 0.000e+00 *S 0.000e+00 0.000e+00 
add1_i\[29\] I *L 0.000e+00 *S 0.000e+00 0.000e+00 
add1_i\[28\] I *L 0.000e+00 *S 0.000e+00 0.000e+00 
add1_i\[27\] I *L 0.000e+00 *S 0.000e+00 0.000e+00 
add1_i\[26\] I *L 0.000e+00 *S 0.000e+00 0.000e+00 
add1_i\[25\] I *L 0.000e+00 *S 0.000e+00 0.000e+00 
add1_i\[24\] I *L 0.000e+00 *S 0.000e+00 0.000e+00 
add1_i\[23\] I *L 0.000e+00 *S 0.000e+00 0.000e+00 
add1_i\[22\] I *L 0.000e+00 *S 0.000e+00 0.000e+00 
add1_i\[21\] I *L 0.000e+00 *S 0.000e+00 0.000e+00 
add1_i\[20\] I *L 0.000e+00 *S 0.000e+00 0.000e+00 
add1_i\[19\] I *L 0.000e+00 *S 0.000e+00 0.000e+00 
add1_i\[18\] I *L 0.000e+00 *S 0.000e+00 0.000e+00 
add1_i\[17\] I *L 0.000e+00 *S 0.000e+00 0.000e+00 
add1_i\[16\] I *L 0.000e+00 *S 0.000e+00 0.000e+00 
add1_i\[15\] I *L 0.000e+00 *S 0.000e+00 0.000e+00 
add1_i\[14\] I *L 0.000e+00 *S 0.000e+00 0.000e+00 
add1_i\[13\] I *L 0.000e+00 *S 0.000e+00 0.000e+00 
add1_i\[12\] I *L 0.000e+00 *S 0.000e+00 0.000e+00 
add1_i\[11\] I *L 0.000e+00 *S 0.000e+00 0.000e+00 
add1_i\[10\] I *L 0.000e+00 *S 0.000e+00 0.000e+00 
add1_i\[9\] I *L 0.000e+00 *S 0.000e+00 0.000e+00 
add1_i\[8\] I *L 0.000e+00 *S 0.000e+00 0.000e+00 
add1_i\[7\] I *L 0.000e+00 *S 0.000e+00 0.000e+00 
add1_i\[6\] I *L 0.000e+00 *S 0.000e+00 0.000e+00 
add1_i\[5\] I *L 0.000e+00 *S 0.000e+00 0.000e+00 
add1_i\[4\] I *L 0.000e+00 *S 0.000e+00 0.000e+00 
add1_i\[3\] I *L 0.000e+00 *S 0.000e+00 0.000e+00 
add1_i\[2\] I *L 0.000e+00 *S 0.000e+00 0.000e+00 
add1_i\[1\] I *L 0.000e+00 *S 0.000e+00 0.000e+00 
add1_i\[0\] I *L 0.000e+00 *S 0.000e+00 0.000e+00 
add2_i\[31\] I *L 0.000e+00 *S 0.000e+00 0.000e+00 
add2_i\[30\] I *L 0.000e+00 *S 0.000e+00 0.000e+00 
add2_i\[29\] I *L 0.000e+00 *S 0.000e+00 0.000e+00 
add2_i\[28\] I *L 0.000e+00 *S 0.000e+00 0.000e+00 
add2_i\[27\] I *L 0.000e+00 *S 0.000e+00 0.000e+00 
add2_i\[26\] I *L 0.000e+00 *S 0.000e+00 0.000e+00 
add2_i\[25\] I *L 0.000e+00 *S 0.000e+00 0.000e+00 
add2_i\[24\] I *L 0.000e+00 *S 0.000e+00 0.000e+00 
add2_i\[23\] I *L 0.000e+00 *S 0.000e+00 0.000e+00 
add2_i\[22\] I *L 0.000e+00 *S 0.000e+00 0.000e+00 
add2_i\[21\] I *L 0.000e+00 *S 0.000e+00 0.000e+00 
add2_i\[20\] I *L 0.000e+00 *S 0.000e+00 0.000e+00 
add2_i\[19\] I *L 0.000e+00 *S 0.000e+00 0.000e+00 
add2_i\[18\] I *L 0.000e+00 *S 0.000e+00 0.000e+00 
add2_i\[17\] I *L 0.000e+00 *S 0.000e+00 0.000e+00 
add2_i\[16\] I *L 0.000e+00 *S 0.000e+00 0.000e+00 
add2_i\[15\] I *L 0.000e+00 *S 0.000e+00 0.000e+00 
add2_i\[14\] I *L 0.000e+00 *S 0.000e+00 0.000e+00 
add2_i\[13\] I *L 0.000e+00 *S 0.000e+00 0.000e+00 
add2_i\[12\] I *L 0.000e+00 *S 0.000e+00 0.000e+00 
add2_i\[11\] I *L 0.000e+00 *S 0.000e+00 0.000e+00 
add2_i\[10\] I *L 0.000e+00 *S 0.000e+00 0.000e+00 
add2_i\[9\] I *L 0.000e+00 *S 0.000e+00 0.000e+00 
add2_i\[8\] I *L 0.000e+00 *S 0.000e+00 0.000e+00 
add2_i\[7\] I *L 0.000e+00 *S 0.000e+00 0.000e+00 
add2_i\[6\] I *L 0.000e+00 *S 0.000e+00 0.000e+00 
add2_i\[5\] I *L 0.000e+00 *S 0.000e+00 0.000e+00 
add2_i\[4\] I *L 0.000e+00 *S 0.000e+00 0.000e+00 
add2_i\[3\] I *L 0.000e+00 *S 0.000e+00 0.000e+00 
add2_i\[2\] I *L 0.000e+00 *S 0.000e+00 0.000e+00 
add2_i\[1\] I *L 0.000e+00 *S 0.000e+00 0.000e+00 
add2_i\[0\] I *L 0.000e+00 *S 0.000e+00 0.000e+00 
result_o\[32\] O *L 1.000e-01 *S 1.851e-03 1.752e-03 
result_o\[31\] O *L 1.000e-01 *S 2.700e-03 1.836e-03 
result_o\[30\] O *L 1.000e-01 *S 2.769e-03 1.850e-03 
result_o\[29\] O *L 1.000e-01 *S 2.769e-03 1.850e-03 
result_o\[28\] O *L 1.000e-01 *S 2.769e-03 1.850e-03 
result_o\[27\] O *L 1.000e-01 *S 2.769e-03 1.850e-03 
result_o\[26\] O *L 1.000e-01 *S 2.769e-03 1.850e-03 
result_o\[25\] O *L 1.000e-01 *S 2.769e-03 1.850e-03 
result_o\[24\] O *L 1.000e-01 *S 2.769e-03 1.850e-03 
result_o\[23\] O *L 1.000e-01 *S 2.769e-03 1.850e-03 
result_o\[22\] O *L 1.000e-01 *S 2.769e-03 1.850e-03 
result_o\[21\] O *L 1.000e-01 *S 2.769e-03 1.850e-03 
result_o\[20\] O *L 1.000e-01 *S 2.769e-03 1.850e-03 
result_o\[19\] O *L 1.000e-01 *S 2.769e-03 1.850e-03 
result_o\[18\] O *L 1.000e-01 *S 2.769e-03 1.850e-03 
result_o\[17\] O *L 1.000e-01 *S 2.769e-03 1.850e-03 
result_o\[16\] O *L 1.000e-01 *S 2.769e-03 1.850e-03 
result_o\[15\] O *L 1.000e-01 *S 2.769e-03 1.850e-03 
result_o\[14\] O *L 1.000e-01 *S 2.769e-03 1.850e-03 
result_o\[13\] O *L 1.000e-01 *S 2.769e-03 1.850e-03 
result_o\[12\] O *L 1.000e-01 *S 2.769e-03 1.850e-03 
result_o\[11\] O *L 1.000e-01 *S 2.769e-03 1.850e-03 
result_o\[10\] O *L 1.000e-01 *S 2.769e-03 1.850e-03 
result_o\[9\] O *L 1.000e-01 *S 2.769e-03 1.850e-03 
result_o\[8\] O *L 1.000e-01 *S 2.769e-03 1.850e-03 
result_o\[7\] O *L 1.000e-01 *S 2.769e-03 1.850e-03 
result_o\[6\] O *L 1.000e-01 *S 2.769e-03 1.850e-03 
result_o\[5\] O *L 1.000e-01 *S 2.769e-03 1.850e-03 
result_o\[4\] O *L 1.000e-01 *S 2.769e-03 1.850e-03 
result_o\[3\] O *L 1.000e-01 *S 2.769e-03 1.850e-03 
result_o\[2\] O *L 1.000e-01 *S 2.769e-03 1.850e-03 
result_o\[1\] O *L 1.000e-01 *S 2.769e-03 1.850e-03 
result_o\[0\] O *L 1.000e-01 *S 1.851e-03 1.752e-03 

*R_NET add1_i\[31\] 6.936e+00
*DRIVER add1_i\[31\]
*CELL NULL
*C2_R1_C1 3.468e+00 2.308e-02 3.468e+00 
*LOADS
*RC U577:A 2.446e-02
*RC U587:A2 1.152e-02
*RC U585:A1 1.738e-02
*END

*R_NET add1_i\[30\] 6.936e+00
*DRIVER add1_i\[30\]
*CELL NULL
*C2_R1_C1 3.468e+00 2.308e-02 3.468e+00 
*LOADS
*RC U553:A2 1.152e-02
*RC U551:A1 1.738e-02
*RC U654:A 2.446e-02
*END

*R_NET add1_i\[29\] 9.773e+00
*DRIVER add1_i\[29\]
*CELL NULL
*C2_R1_C1 4.887e+00 3.293e-02 4.887e+00 
*LOADS
*RC U582:A2 1.987e-02
*RC U597:A2 1.955e-02
*RC U656:A1 1.237e-02
*RC U400:B 2.867e-02
*END

*R_NET add1_i\[28\] 7.340e+00
*DRIVER add1_i\[28\]
*CELL NULL
*C2_R1_C1 3.670e+00 2.308e-02 3.670e+00 
*LOADS
*RC U579:A2 1.836e-02
*RC U602:A2 1.152e-02
*RC U402:B 2.659e-02
*END

*R_NET add1_i\[27\] 7.340e+00
*DRIVER add1_i\[27\]
*CELL NULL
*C2_R1_C1 3.670e+00 2.308e-02 3.670e+00 
*LOADS
*RC U559:A2 1.836e-02
*RC U667:A2 1.152e-02
*RC U404:B 2.659e-02
*END

*R_NET add1_i\[26\] 7.340e+00
*DRIVER add1_i\[26\]
*CELL NULL
*C2_R1_C1 3.670e+00 2.308e-02 3.670e+00 
*LOADS
*RC U555:A2 1.152e-02
*RC U562:A2 1.836e-02
*RC U406:B 2.659e-02
*END

*R_NET add1_i\[25\] 5.820e+00
*DRIVER add1_i\[25\]
*CELL NULL
*C2_R1_C1 2.910e+00 1.407e-02 2.910e+00 
*LOADS
*RC U574:A 1.686e-02
*RC U408:B 2.408e-02
*END

*R_NET add1_i\[24\] 5.820e+00
*DRIVER add1_i\[24\]
*CELL NULL
*C2_R1_C1 2.910e+00 1.407e-02 2.910e+00 
*LOADS
*RC U676:A 1.686e-02
*RC U410:B 2.408e-02
*END

*R_NET add1_i\[23\] 7.340e+00
*DRIVER add1_i\[23\]
*CELL NULL
*C2_R1_C1 3.670e+00 2.308e-02 3.670e+00 
*LOADS
*RC U601:A2 1.836e-02
*RC U606:A2 1.152e-02
*RC U412:B 2.659e-02
*END

*R_NET add1_i\[22\] 5.820e+00
*DRIVER add1_i\[22\]
*CELL NULL
*C2_R1_C1 2.910e+00 1.407e-02 2.910e+00 
*LOADS
*RC U674:A 1.686e-02
*RC U414:B 2.408e-02
*END

*R_NET add1_i\[21\] 5.820e+00
*DRIVER add1_i\[21\]
*CELL NULL
*C2_R1_C1 2.910e+00 1.407e-02 2.910e+00 
*LOADS
*RC U675:A 1.686e-02
*RC U416:B 2.408e-02
*END

*R_NET add1_i\[20\] 7.340e+00
*DRIVER add1_i\[20\]
*CELL NULL
*C2_R1_C1 3.670e+00 2.308e-02 3.670e+00 
*LOADS
*RC U600:A2 1.836e-02
*RC U605:A2 1.152e-02
*RC U418:B 2.659e-02
*END

*R_NET add1_i\[19\] 5.820e+00
*DRIVER add1_i\[19\]
*CELL NULL
*C2_R1_C1 2.910e+00 1.407e-02 2.910e+00 
*LOADS
*RC U672:A 1.686e-02
*RC U422:B 2.408e-02
*END

*R_NET add1_i\[18\] 5.820e+00
*DRIVER add1_i\[18\]
*CELL NULL
*C2_R1_C1 2.910e+00 1.407e-02 2.910e+00 
*LOADS
*RC U673:A 1.686e-02
*RC U424:B 2.408e-02
*END

*R_NET add1_i\[17\] 7.340e+00
*DRIVER add1_i\[17\]
*CELL NULL
*C2_R1_C1 3.670e+00 2.308e-02 3.670e+00 
*LOADS
*RC U599:A2 1.836e-02
*RC U604:A2 1.152e-02
*RC U426:B 2.659e-02
*END

*R_NET add1_i\[16\] 5.820e+00
*DRIVER add1_i\[16\]
*CELL NULL
*C2_R1_C1 2.910e+00 1.407e-02 2.910e+00 
*LOADS
*RC U670:A 1.686e-02
*RC U428:B 2.408e-02
*END

*R_NET add1_i\[15\] 5.820e+00
*DRIVER add1_i\[15\]
*CELL NULL
*C2_R1_C1 2.910e+00 1.407e-02 2.910e+00 
*LOADS
*RC U671:A 1.686e-02
*RC U430:B 2.408e-02
*END

*R_NET add1_i\[14\] 7.340e+00
*DRIVER add1_i\[14\]
*CELL NULL
*C2_R1_C1 3.670e+00 2.308e-02 3.670e+00 
*LOADS
*RC U598:A2 1.836e-02
*RC U603:A2 1.152e-02
*RC U432:B 2.659e-02
*END

*R_NET add1_i\[13\] 5.820e+00
*DRIVER add1_i\[13\]
*CELL NULL
*C2_R1_C1 2.910e+00 1.407e-02 2.910e+00 
*LOADS
*RC U669:A 1.686e-02
*RC U434:B 2.408e-02
*END

*R_NET add1_i\[12\] 7.063e+00
*DRIVER add1_i\[12\]
*CELL NULL
*C2_R1_C1 3.532e+00 2.308e-02 3.532e+00 
*LOADS
*RC U590:A2 1.806e-02
*RC U651:A 2.446e-02
*RC U664:A2 1.183e-02
*END

*R_NET add1_i\[11\] 7.913e+00
*DRIVER add1_i\[11\]
*CELL NULL
*C2_R1_C1 3.956e+00 2.308e-02 3.956e+00 
*LOADS
*RC U589:A2 1.806e-02
*RC U648:A 2.446e-02
*RC U662:A2 1.836e-02
*END

*R_NET add1_i\[10\] 8.190e+00
*DRIVER add1_i\[10\]
*CELL NULL
*C2_R1_C1 4.095e+00 2.308e-02 4.095e+00 
*LOADS
*RC U588:A2 1.806e-02
*RC U677:A2 1.836e-02
*RC U438:B 2.659e-02
*END

*R_NET add1_i\[9\] 7.279e+00
*DRIVER add1_i\[9\]
*CELL NULL
*C2_R1_C1 3.640e+00 2.308e-02 3.640e+00 
*LOADS
*RC U592:A2 1.806e-02
*RC U663:A1 1.136e-02
*RC U383:B 2.659e-02
*END

*R_NET add1_i\[8\] 7.340e+00
*DRIVER add1_i\[8\]
*CELL NULL
*C2_R1_C1 3.670e+00 2.308e-02 3.670e+00 
*LOADS
*RC U594:A2 1.806e-02
*RC U666:A2 1.183e-02
*RC U385:B 2.659e-02
*END

*R_NET add1_i\[7\] 7.340e+00
*DRIVER add1_i\[7\]
*CELL NULL
*C2_R1_C1 3.670e+00 2.308e-02 3.670e+00 
*LOADS
*RC U609:A2 1.152e-02
*RC U659:A2 1.836e-02
*RC U387:B 2.659e-02
*END

*R_NET add1_i\[6\] 7.340e+00
*DRIVER add1_i\[6\]
*CELL NULL
*C2_R1_C1 3.670e+00 2.308e-02 3.670e+00 
*LOADS
*RC U607:A2 1.152e-02
*RC U668:A2 1.836e-02
*RC U389:B 2.659e-02
*END

*R_NET add1_i\[5\] 7.340e+00
*DRIVER add1_i\[5\]
*CELL NULL
*C2_R1_C1 3.670e+00 2.308e-02 3.670e+00 
*LOADS
*RC U608:A2 1.152e-02
*RC U661:A2 1.836e-02
*RC U391:B 2.659e-02
*END

*R_NET add1_i\[4\] 7.340e+00
*DRIVER add1_i\[4\]
*CELL NULL
*C2_R1_C1 3.670e+00 2.308e-02 3.670e+00 
*LOADS
*RC U660:A2 1.836e-02
*RC U665:A2 1.152e-02
*RC U393:B 2.659e-02
*END

*R_NET add1_i\[3\] 9.695e+00
*DRIVER add1_i\[3\]
*CELL NULL
*C2_R1_C1 4.847e+00 3.293e-02 4.847e+00 
*LOADS
*RC U564:A2 1.987e-02
*RC U591:A2 1.955e-02
*RC U596:A1 1.173e-02
*RC U395:B 2.867e-02
*END

*R_NET add1_i\[2\] 1.050e+01
*DRIVER add1_i\[2\]
*CELL NULL
*C2_R1_C1 5.251e+00 3.293e-02 5.251e+00 
*LOADS
*RC U567:A2 1.987e-02
*RC U593:A2 1.955e-02
*RC U658:A2 1.837e-02
*RC U398:B 2.867e-02
*END

*R_NET add1_i\[1\] 9.525e+00
*DRIVER add1_i\[1\]
*CELL NULL
*C2_R1_C1 4.762e+00 3.293e-02 4.762e+00 
*LOADS
*RC U573:A2 1.255e-02
*RC U571:A1 1.882e-02
*RC U635:A2 1.837e-02
*RC U420:B 2.867e-02
*END

*R_NET add1_i\[0\] 3.819e+00
*DRIVER add1_i\[0\]
*CELL NULL
*C2_R1_C1 1.910e+00 1.407e-02 1.910e+00 
*LOADS
*RC U554:A2 1.031e-02
*RC U691:A2 1.656e-02
*END

*R_NET add2_i\[31\] 5.478e+00
*DRIVER add2_i\[31\]
*CELL NULL
*C2_R1_C1 2.739e+00 1.407e-02 2.739e+00 
*LOADS
*RC U577:B 2.296e-02
*RC U586:A1 1.566e-02
*END

*R_NET add2_i\[30\] 5.478e+00
*DRIVER add2_i\[30\]
*CELL NULL
*C2_R1_C1 2.739e+00 1.407e-02 2.739e+00 
*LOADS
*RC U552:A1 1.566e-02
*RC U654:B 2.296e-02
*END

*R_NET add2_i\[29\] 9.542e+00
*DRIVER add2_i\[29\]
*CELL NULL
*C2_R1_C1 4.771e+00 3.293e-02 4.771e+00 
*LOADS
*RC U582:A1 1.882e-02
*RC U597:A1 2.068e-02
*RC U656:A2 1.288e-02
*RC U400:A 2.618e-02
*END

*R_NET add2_i\[28\] 6.940e+00
*DRIVER add2_i\[28\]
*CELL NULL
*C2_R1_C1 3.470e+00 2.308e-02 3.470e+00 
*LOADS
*RC U579:A1 1.738e-02
*RC U602:A1 1.175e-02
*RC U402:A 2.426e-02
*END

*R_NET add2_i\[27\] 6.940e+00
*DRIVER add2_i\[27\]
*CELL NULL
*C2_R1_C1 3.470e+00 2.308e-02 3.470e+00 
*LOADS
*RC U559:A1 1.738e-02
*RC U667:A1 1.175e-02
*RC U404:A 2.426e-02
*END

*R_NET add2_i\[26\] 6.940e+00
*DRIVER add2_i\[26\]
*CELL NULL
*C2_R1_C1 3.470e+00 2.308e-02 3.470e+00 
*LOADS
*RC U555:A1 1.175e-02
*RC U562:A1 1.738e-02
*RC U406:A 2.426e-02
*END

*R_NET add2_i\[25\] 5.518e+00
*DRIVER add2_i\[25\]
*CELL NULL
*C2_R1_C1 2.759e+00 1.407e-02 2.759e+00 
*LOADS
*RC U575:A 1.686e-02
*RC U408:A 2.195e-02
*END

*R_NET add2_i\[24\] 5.518e+00
*DRIVER add2_i\[24\]
*CELL NULL
*C2_R1_C1 2.759e+00 1.407e-02 2.759e+00 
*LOADS
*RC U685:A 1.686e-02
*RC U410:A 2.195e-02
*END

*R_NET add2_i\[23\] 6.940e+00
*DRIVER add2_i\[23\]
*CELL NULL
*C2_R1_C1 3.470e+00 2.308e-02 3.470e+00 
*LOADS
*RC U601:A1 1.738e-02
*RC U606:A1 1.175e-02
*RC U412:A 2.426e-02
*END

*R_NET add2_i\[22\] 5.518e+00
*DRIVER add2_i\[22\]
*CELL NULL
*C2_R1_C1 2.759e+00 1.407e-02 2.759e+00 
*LOADS
*RC U683:A 1.686e-02
*RC U414:A 2.195e-02
*END

*R_NET add2_i\[21\] 5.518e+00
*DRIVER add2_i\[21\]
*CELL NULL
*C2_R1_C1 2.759e+00 1.407e-02 2.759e+00 
*LOADS
*RC U684:A 1.686e-02
*RC U416:A 2.195e-02
*END

*R_NET add2_i\[20\] 6.940e+00
*DRIVER add2_i\[20\]
*CELL NULL
*C2_R1_C1 3.470e+00 2.308e-02 3.470e+00 
*LOADS
*RC U600:A1 1.738e-02
*RC U605:A1 1.175e-02
*RC U418:A 2.426e-02
*END

*R_NET add2_i\[19\] 5.518e+00
*DRIVER add2_i\[19\]
*CELL NULL
*C2_R1_C1 2.759e+00 1.407e-02 2.759e+00 
*LOADS
*RC U681:A 1.686e-02
*RC U422:A 2.195e-02
*END

*R_NET add2_i\[18\] 5.518e+00
*DRIVER add2_i\[18\]
*CELL NULL
*C2_R1_C1 2.759e+00 1.407e-02 2.759e+00 
*LOADS
*RC U682:A 1.686e-02
*RC U424:A 2.195e-02
*END

*R_NET add2_i\[17\] 6.940e+00
*DRIVER add2_i\[17\]
*CELL NULL
*C2_R1_C1 3.470e+00 2.308e-02 3.470e+00 
*LOADS
*RC U599:A1 1.738e-02
*RC U604:A1 1.175e-02
*RC U426:A 2.426e-02
*END

*R_NET add2_i\[16\] 5.518e+00
*DRIVER add2_i\[16\]
*CELL NULL
*C2_R1_C1 2.759e+00 1.407e-02 2.759e+00 
*LOADS
*RC U679:A 1.686e-02
*RC U428:A 2.195e-02
*END

*R_NET add2_i\[15\] 5.518e+00
*DRIVER add2_i\[15\]
*CELL NULL
*C2_R1_C1 2.759e+00 1.407e-02 2.759e+00 
*LOADS
*RC U680:A 1.686e-02
*RC U430:A 2.195e-02
*END

*R_NET add2_i\[14\] 6.940e+00
*DRIVER add2_i\[14\]
*CELL NULL
*C2_R1_C1 3.470e+00 2.308e-02 3.470e+00 
*LOADS
*RC U598:A1 1.738e-02
*RC U603:A1 1.175e-02
*RC U432:A 2.426e-02
*END

*R_NET add2_i\[13\] 5.518e+00
*DRIVER add2_i\[13\]
*CELL NULL
*C2_R1_C1 2.759e+00 1.407e-02 2.759e+00 
*LOADS
*RC U678:A 1.686e-02
*RC U434:A 2.195e-02
*END

*R_NET add2_i\[12\] 7.246e+00
*DRIVER add2_i\[12\]
*CELL NULL
*C2_R1_C1 3.623e+00 2.308e-02 3.623e+00 
*LOADS
*RC U590:A1 1.912e-02
*RC U651:B 2.536e-02
*RC U664:A1 1.136e-02
*END

*R_NET add2_i\[11\] 8.029e+00
*DRIVER add2_i\[11\]
*CELL NULL
*C2_R1_C1 4.014e+00 2.308e-02 4.014e+00 
*LOADS
*RC U589:A1 1.912e-02
*RC U648:B 2.536e-02
*RC U662:A1 1.738e-02
*END

*R_NET add2_i\[10\] 7.898e+00
*DRIVER add2_i\[10\]
*CELL NULL
*C2_R1_C1 3.949e+00 2.308e-02 3.949e+00 
*LOADS
*RC U588:A1 1.912e-02
*RC U677:A1 1.738e-02
*RC U438:A 2.426e-02
*END

*R_NET add2_i\[9\] 7.176e+00
*DRIVER add2_i\[9\]
*CELL NULL
*C2_R1_C1 3.588e+00 2.308e-02 3.588e+00 
*LOADS
*RC U592:A1 1.912e-02
*RC U663:A2 1.183e-02
*RC U383:A 2.426e-02
*END

*R_NET add2_i\[8\] 7.115e+00
*DRIVER add2_i\[8\]
*CELL NULL
*C2_R1_C1 3.557e+00 2.308e-02 3.557e+00 
*LOADS
*RC U594:A1 1.912e-02
*RC U666:A1 1.136e-02
*RC U385:A 2.426e-02
*END

*R_NET add2_i\[7\] 6.940e+00
*DRIVER add2_i\[7\]
*CELL NULL
*C2_R1_C1 3.470e+00 2.308e-02 3.470e+00 
*LOADS
*RC U609:A1 1.175e-02
*RC U659:A1 1.738e-02
*RC U387:A 2.426e-02
*END

*R_NET add2_i\[6\] 6.940e+00
*DRIVER add2_i\[6\]
*CELL NULL
*C2_R1_C1 3.470e+00 2.308e-02 3.470e+00 
*LOADS
*RC U607:A1 1.175e-02
*RC U668:A1 1.738e-02
*RC U389:A 2.426e-02
*END

*R_NET add2_i\[5\] 6.940e+00
*DRIVER add2_i\[5\]
*CELL NULL
*C2_R1_C1 3.470e+00 2.308e-02 3.470e+00 
*LOADS
*RC U608:A1 1.175e-02
*RC U661:A1 1.738e-02
*RC U391:A 2.426e-02
*END

*R_NET add2_i\[4\] 6.940e+00
*DRIVER add2_i\[4\]
*CELL NULL
*C2_R1_C1 3.470e+00 2.308e-02 3.470e+00 
*LOADS
*RC U660:A1 1.738e-02
*RC U665:A1 1.175e-02
*RC U393:A 2.426e-02
*END

*R_NET add2_i\[3\] 9.532e+00
*DRIVER add2_i\[3\]
*CELL NULL
*C2_R1_C1 4.766e+00 3.293e-02 4.766e+00 
*LOADS
*RC U564:A1 1.882e-02
*RC U591:A1 2.068e-02
*RC U596:A3 1.280e-02
*RC U395:A 2.618e-02
*END

*R_NET add2_i\[2\] 1.011e+01
*DRIVER add2_i\[2\]
*CELL NULL
*C2_R1_C1 5.055e+00 3.293e-02 5.055e+00 
*LOADS
*RC U567:A1 1.882e-02
*RC U593:A1 2.068e-02
*RC U658:A1 1.811e-02
*RC U398:A 2.618e-02
*END

*R_NET add2_i\[1\] 7.517e+00
*DRIVER add2_i\[1\]
*CELL NULL
*C2_R1_C1 3.759e+00 2.308e-02 3.759e+00 
*LOADS
*RC U572:A1 1.738e-02
*RC U635:A1 1.672e-02
*RC U420:A 2.426e-02
*END

*R_NET add2_i\[0\] 3.721e+00
*DRIVER add2_i\[0\]
*CELL NULL
*C2_R1_C1 1.860e+00 1.407e-02 1.860e+00 
*LOADS
*RC U554:A1 1.051e-02
*RC U691:A1 1.566e-02
*END

*R_NET result_o\[32\] 4.097e-01
*DRIVER U584:ZN
*CELL NAND2_X1
*C2_R1_C1 2.049e-01 6.236e-03 2.049e-01 
*LOADS
*RC result_o\[32\] 2.555e-03
*END

*R_NET result_o\[31\] 4.097e-01
*DRIVER U576:ZN
*CELL XNOR2_X1
*C2_R1_C1 2.049e-01 6.236e-03 2.049e-01 
*LOADS
*RC result_o\[31\] 2.555e-03
*END

*R_NET result_o\[30\] 4.097e-01
*DRIVER U396:Z
*CELL XOR2_X1
*C2_R1_C1 2.049e-01 6.236e-03 2.049e-01 
*LOADS
*RC result_o\[30\] 2.555e-03
*END

*R_NET result_o\[29\] 4.097e-01
*DRIVER U399:Z
*CELL XOR2_X1
*C2_R1_C1 2.049e-01 6.236e-03 2.049e-01 
*LOADS
*RC result_o\[29\] 2.555e-03
*END

*R_NET result_o\[28\] 4.097e-01
*DRIVER U401:Z
*CELL XOR2_X1
*C2_R1_C1 2.049e-01 6.236e-03 2.049e-01 
*LOADS
*RC result_o\[28\] 2.555e-03
*END

*R_NET result_o\[27\] 4.097e-01
*DRIVER U403:Z
*CELL XOR2_X1
*C2_R1_C1 2.049e-01 6.236e-03 2.049e-01 
*LOADS
*RC result_o\[27\] 2.555e-03
*END

*R_NET result_o\[26\] 4.097e-01
*DRIVER U405:Z
*CELL XOR2_X1
*C2_R1_C1 2.049e-01 6.236e-03 2.049e-01 
*LOADS
*RC result_o\[26\] 2.555e-03
*END

*R_NET result_o\[25\] 4.097e-01
*DRIVER U407:Z
*CELL XOR2_X1
*C2_R1_C1 2.049e-01 6.236e-03 2.049e-01 
*LOADS
*RC result_o\[25\] 2.555e-03
*END

*R_NET result_o\[24\] 4.097e-01
*DRIVER U409:Z
*CELL XOR2_X1
*C2_R1_C1 2.049e-01 6.236e-03 2.049e-01 
*LOADS
*RC result_o\[24\] 2.555e-03
*END

*R_NET result_o\[23\] 4.097e-01
*DRIVER U411:Z
*CELL XOR2_X1
*C2_R1_C1 2.049e-01 6.236e-03 2.049e-01 
*LOADS
*RC result_o\[23\] 2.555e-03
*END

*R_NET result_o\[22\] 4.097e-01
*DRIVER U413:Z
*CELL XOR2_X1
*C2_R1_C1 2.049e-01 6.236e-03 2.049e-01 
*LOADS
*RC result_o\[22\] 2.555e-03
*END

*R_NET result_o\[21\] 4.097e-01
*DRIVER U415:Z
*CELL XOR2_X1
*C2_R1_C1 2.049e-01 6.236e-03 2.049e-01 
*LOADS
*RC result_o\[21\] 2.555e-03
*END

*R_NET result_o\[20\] 4.097e-01
*DRIVER U417:Z
*CELL XOR2_X1
*C2_R1_C1 2.049e-01 6.236e-03 2.049e-01 
*LOADS
*RC result_o\[20\] 2.555e-03
*END

*R_NET result_o\[19\] 4.097e-01
*DRIVER U421:Z
*CELL XOR2_X1
*C2_R1_C1 2.049e-01 6.236e-03 2.049e-01 
*LOADS
*RC result_o\[19\] 2.555e-03
*END

*R_NET result_o\[18\] 4.097e-01
*DRIVER U423:Z
*CELL XOR2_X1
*C2_R1_C1 2.049e-01 6.236e-03 2.049e-01 
*LOADS
*RC result_o\[18\] 2.555e-03
*END

*R_NET result_o\[17\] 4.097e-01
*DRIVER U425:Z
*CELL XOR2_X1
*C2_R1_C1 2.049e-01 6.236e-03 2.049e-01 
*LOADS
*RC result_o\[17\] 2.555e-03
*END

*R_NET result_o\[16\] 4.097e-01
*DRIVER U427:Z
*CELL XOR2_X1
*C2_R1_C1 2.049e-01 6.236e-03 2.049e-01 
*LOADS
*RC result_o\[16\] 2.555e-03
*END

*R_NET result_o\[15\] 4.097e-01
*DRIVER U429:Z
*CELL XOR2_X1
*C2_R1_C1 2.049e-01 6.236e-03 2.049e-01 
*LOADS
*RC result_o\[15\] 2.555e-03
*END

*R_NET result_o\[14\] 4.097e-01
*DRIVER U431:Z
*CELL XOR2_X1
*C2_R1_C1 2.049e-01 6.236e-03 2.049e-01 
*LOADS
*RC result_o\[14\] 2.555e-03
*END

*R_NET result_o\[13\] 4.097e-01
*DRIVER U433:Z
*CELL XOR2_X1
*C2_R1_C1 2.049e-01 6.236e-03 2.049e-01 
*LOADS
*RC result_o\[13\] 2.555e-03
*END

*R_NET result_o\[12\] 4.097e-01
*DRIVER U435:Z
*CELL XOR2_X1
*C2_R1_C1 2.049e-01 6.236e-03 2.049e-01 
*LOADS
*RC result_o\[12\] 2.555e-03
*END

*R_NET result_o\[11\] 4.097e-01
*DRIVER U436:Z
*CELL XOR2_X1
*C2_R1_C1 2.049e-01 6.236e-03 2.049e-01 
*LOADS
*RC result_o\[11\] 2.555e-03
*END

*R_NET result_o\[10\] 4.097e-01
*DRIVER U437:Z
*CELL XOR2_X1
*C2_R1_C1 2.049e-01 6.236e-03 2.049e-01 
*LOADS
*RC result_o\[10\] 2.555e-03
*END

*R_NET result_o\[9\] 4.097e-01
*DRIVER U382:Z
*CELL XOR2_X1
*C2_R1_C1 2.049e-01 6.236e-03 2.049e-01 
*LOADS
*RC result_o\[9\] 2.555e-03
*END

*R_NET result_o\[8\] 4.097e-01
*DRIVER U384:Z
*CELL XOR2_X1
*C2_R1_C1 2.049e-01 6.236e-03 2.049e-01 
*LOADS
*RC result_o\[8\] 2.555e-03
*END

*R_NET result_o\[7\] 4.097e-01
*DRIVER U386:Z
*CELL XOR2_X1
*C2_R1_C1 2.049e-01 6.236e-03 2.049e-01 
*LOADS
*RC result_o\[7\] 2.555e-03
*END

*R_NET result_o\[6\] 4.097e-01
*DRIVER U388:Z
*CELL XOR2_X1
*C2_R1_C1 2.049e-01 6.236e-03 2.049e-01 
*LOADS
*RC result_o\[6\] 2.555e-03
*END

*R_NET result_o\[5\] 4.097e-01
*DRIVER U390:Z
*CELL XOR2_X1
*C2_R1_C1 2.049e-01 6.236e-03 2.049e-01 
*LOADS
*RC result_o\[5\] 2.555e-03
*END

*R_NET result_o\[4\] 4.097e-01
*DRIVER U392:Z
*CELL XOR2_X1
*C2_R1_C1 2.049e-01 6.236e-03 2.049e-01 
*LOADS
*RC result_o\[4\] 2.555e-03
*END

*R_NET result_o\[3\] 4.097e-01
*DRIVER U394:Z
*CELL XOR2_X1
*C2_R1_C1 2.049e-01 6.236e-03 2.049e-01 
*LOADS
*RC result_o\[3\] 2.555e-03
*END

*R_NET result_o\[2\] 4.097e-01
*DRIVER U397:Z
*CELL XOR2_X1
*C2_R1_C1 2.049e-01 6.236e-03 2.049e-01 
*LOADS
*RC result_o\[2\] 2.555e-03
*END

*R_NET result_o\[1\] 4.097e-01
*DRIVER U419:Z
*CELL XOR2_X1
*C2_R1_C1 2.049e-01 6.236e-03 2.049e-01 
*LOADS
*RC result_o\[1\] 2.555e-03
*END

*R_NET result_o\[0\] 4.097e-01
*DRIVER U690:ZN
*CELL NAND2_X1
*C2_R1_C1 2.049e-01 6.236e-03 2.049e-01 
*LOADS
*RC result_o\[0\] 2.555e-03
*END

*R_NET n217 2.187e+00
*DRIVER U629:ZN
*CELL INV_X1
*C2_R1_C1 1.093e+00 6.236e-03 1.093e+00 
*LOADS
*RC U628:A1 1.364e-02
*END

*R_NET n218 2.187e+00
*DRIVER U441:ZN
*CELL INV_X1
*C2_R1_C1 1.093e+00 6.236e-03 1.093e+00 
*LOADS
*RC U627:A1 1.364e-02
*END

*R_NET n219 4.669e+00
*DRIVER U574:ZN
*CELL INV_X1
*C2_R1_C1 2.334e+00 1.407e-02 2.334e+00 
*LOADS
*RC U464:A2 1.628e-02
*RC U514:A2 1.656e-02
*END

*R_NET n220 2.314e+00
*DRIVER U455:ZN
*CELL INV_X1
*C2_R1_C1 1.157e+00 6.236e-03 1.157e+00 
*LOADS
*RC U454:A2 1.443e-02
*END

*R_NET n221 4.669e+00
*DRIVER U676:ZN
*CELL INV_X1
*C2_R1_C1 2.334e+00 1.407e-02 2.334e+00 
*LOADS
*RC U491:A2 1.628e-02
*RC U518:A2 1.656e-02
*END

*R_NET n222 2.100e+00
*DRIVER U548:ZN
*CELL INV_X1
*C2_R1_C1 1.050e+00 6.236e-03 1.050e+00 
*LOADS
*RC U645:A1 1.310e-02
*END

*R_NET n223 2.187e+00
*DRIVER U440:ZN
*CELL INV_X1
*C2_R1_C1 1.093e+00 6.236e-03 1.093e+00 
*LOADS
*RC U623:A1 1.364e-02
*END

*R_NET n224 4.669e+00
*DRIVER U674:ZN
*CELL INV_X1
*C2_R1_C1 2.334e+00 1.407e-02 2.334e+00 
*LOADS
*RC U497:A2 1.628e-02
*RC U513:A2 1.656e-02
*END

*R_NET n225 2.314e+00
*DRIVER U460:ZN
*CELL INV_X1
*C2_R1_C1 1.157e+00 6.236e-03 1.157e+00 
*LOADS
*RC U625:A2 1.443e-02
*END

*R_NET n226 4.669e+00
*DRIVER U675:ZN
*CELL INV_X1
*C2_R1_C1 2.334e+00 1.407e-02 2.334e+00 
*LOADS
*RC U498:A2 1.628e-02
*RC U517:A2 1.656e-02
*END

*R_NET n227 2.100e+00
*DRIVER U547:ZN
*CELL INV_X1
*C2_R1_C1 1.050e+00 6.236e-03 1.050e+00 
*LOADS
*RC U643:A1 1.310e-02
*END

*R_NET n228 2.187e+00
*DRIVER U439:ZN
*CELL INV_X1
*C2_R1_C1 1.093e+00 6.236e-03 1.093e+00 
*LOADS
*RC U619:A1 1.364e-02
*END

*R_NET n229 4.669e+00
*DRIVER U672:ZN
*CELL INV_X1
*C2_R1_C1 2.334e+00 1.407e-02 2.334e+00 
*LOADS
*RC U495:A2 1.628e-02
*RC U512:A2 1.656e-02
*END

*R_NET n230 2.314e+00
*DRIVER U459:ZN
*CELL INV_X1
*C2_R1_C1 1.157e+00 6.236e-03 1.157e+00 
*LOADS
*RC U621:A2 1.443e-02
*END

*R_NET n231 4.669e+00
*DRIVER U673:ZN
*CELL INV_X1
*C2_R1_C1 2.334e+00 1.407e-02 2.334e+00 
*LOADS
*RC U496:A2 1.628e-02
*RC U516:A2 1.656e-02
*END

*R_NET n232 2.100e+00
*DRIVER U546:ZN
*CELL INV_X1
*C2_R1_C1 1.050e+00 6.236e-03 1.050e+00 
*LOADS
*RC U641:A1 1.310e-02
*END

*R_NET n233 2.187e+00
*DRIVER U463:ZN
*CELL INV_X1
*C2_R1_C1 1.093e+00 6.236e-03 1.093e+00 
*LOADS
*RC U615:A1 1.364e-02
*END

*R_NET n234 4.669e+00
*DRIVER U670:ZN
*CELL INV_X1
*C2_R1_C1 2.334e+00 1.407e-02 2.334e+00 
*LOADS
*RC U493:A2 1.628e-02
*RC U511:A2 1.656e-02
*END

*R_NET n235 2.314e+00
*DRIVER U458:ZN
*CELL INV_X1
*C2_R1_C1 1.157e+00 6.236e-03 1.157e+00 
*LOADS
*RC U617:A2 1.443e-02
*END

*R_NET n236 4.669e+00
*DRIVER U671:ZN
*CELL INV_X1
*C2_R1_C1 2.334e+00 1.407e-02 2.334e+00 
*LOADS
*RC U494:A2 1.628e-02
*RC U515:A2 1.656e-02
*END

*R_NET n237 2.100e+00
*DRIVER U545:ZN
*CELL INV_X1
*C2_R1_C1 1.050e+00 6.236e-03 1.050e+00 
*LOADS
*RC U639:A1 1.310e-02
*END

*R_NET n238 2.187e+00
*DRIVER U462:ZN
*CELL INV_X1
*C2_R1_C1 1.093e+00 6.236e-03 1.093e+00 
*LOADS
*RC U613:A1 1.364e-02
*END

*R_NET n239 4.669e+00
*DRIVER U669:ZN
*CELL INV_X1
*C2_R1_C1 2.334e+00 1.407e-02 2.334e+00 
*LOADS
*RC U492:A2 1.628e-02
*RC U510:A2 1.656e-02
*END

*R_NET n240 2.314e+00
*DRIVER U457:ZN
*CELL INV_X1
*C2_R1_C1 1.157e+00 6.236e-03 1.157e+00 
*LOADS
*RC U687:A2 1.443e-02
*END

*R_NET n241 3.752e+00
*DRIVER U540:ZN
*CELL INV_X1
*C2_R1_C1 1.876e+00 1.407e-02 1.876e+00 
*LOADS
*RC U470:A2 1.058e-02
*RC U637:A3 1.581e-02
*END

*R_NET n242 4.387e+00
*DRIVER U539:ZN
*CELL INV_X1
*C2_R1_C1 2.193e+00 1.407e-02 2.193e+00 
*LOADS
*RC U637:A1 1.505e-02
*RC U652:A2 1.628e-02
*END

*R_NET n243 2.314e+00
*DRIVER U461:ZN
*CELL INV_X1
*C2_R1_C1 1.157e+00 6.236e-03 1.157e+00 
*LOADS
*RC U633:A2 1.443e-02
*END

*R_NET n244 2.187e+00
*DRIVER U456:ZN
*CELL INV_X1
*C2_R1_C1 1.093e+00 6.236e-03 1.093e+00 
*LOADS
*RC U611:A1 1.364e-02
*END

*R_NET n245 4.581e+00
*DRIVER U537:ZN
*CELL INV_X1
*C2_R1_C1 2.290e+00 1.407e-02 2.290e+00 
*LOADS
*RC U509:A3 1.641e-02
*RC U647:A3 1.581e-02
*END

*R_NET n246 4.486e+00
*DRIVER U538:ZN
*CELL INV_X1
*C2_R1_C1 2.243e+00 1.407e-02 2.243e+00 
*LOADS
*RC U509:A2 1.578e-02
*RC U631:A2 1.578e-02
*END

*R_NET n247 2.187e+00
*DRIVER U544:ZN
*CELL INV_X1
*C2_R1_C1 1.093e+00 6.236e-03 1.093e+00 
*LOADS
*RC U634:A1 1.364e-02
*END

*R_NET n248 2.294e+00
*DRIVER U549:ZN
*CELL INV_X1
*C2_R1_C1 1.147e+00 6.236e-03 1.147e+00 
*LOADS
*RC U631:A3 1.430e-02
*END

*R_NET n249 2.187e+00
*DRIVER U543:ZN
*CELL INV_X1
*C2_R1_C1 1.093e+00 6.236e-03 1.093e+00 
*LOADS
*RC U542:A1 1.364e-02
*END

*R_NET n250 2.294e+00
*DRIVER U525:ZN
*CELL INV_X1
*C2_R1_C1 1.147e+00 6.236e-03 1.147e+00 
*LOADS
*RC U524:A3 1.430e-02
*END

*R_NET n251 4.682e+00
*DRIVER U535:ZN
*CELL INV_X1
*C2_R1_C1 2.341e+00 1.407e-02 2.341e+00 
*LOADS
*RC U565:A2 1.656e-02
*RC U658:A4 1.638e-02
*END

*R_NET n252 2.314e+00
*DRIVER U569:ZN
*CELL INV_X1
*C2_R1_C1 1.157e+00 6.236e-03 1.157e+00 
*LOADS
*RC U568:A2 1.443e-02
*END

*R_NET n253 4.679e+00
*DRIVER U575:ZN
*CELL INV_X1
*C2_R1_C1 2.339e+00 1.407e-02 2.339e+00 
*LOADS
*RC U464:A1 1.725e-02
*RC U514:A1 1.566e-02
*END

*R_NET n254 4.679e+00
*DRIVER U685:ZN
*CELL INV_X1
*C2_R1_C1 2.339e+00 1.407e-02 2.339e+00 
*LOADS
*RC U491:A1 1.725e-02
*RC U518:A1 1.566e-02
*END

*R_NET n255 4.679e+00
*DRIVER U683:ZN
*CELL INV_X1
*C2_R1_C1 2.339e+00 1.407e-02 2.339e+00 
*LOADS
*RC U497:A1 1.725e-02
*RC U513:A1 1.566e-02
*END

*R_NET n256 4.679e+00
*DRIVER U684:ZN
*CELL INV_X1
*C2_R1_C1 2.339e+00 1.407e-02 2.339e+00 
*LOADS
*RC U498:A1 1.725e-02
*RC U517:A1 1.566e-02
*END

*R_NET n257 4.679e+00
*DRIVER U681:ZN
*CELL INV_X1
*C2_R1_C1 2.339e+00 1.407e-02 2.339e+00 
*LOADS
*RC U495:A1 1.725e-02
*RC U512:A1 1.566e-02
*END

*R_NET n258 4.679e+00
*DRIVER U682:ZN
*CELL INV_X1
*C2_R1_C1 2.339e+00 1.407e-02 2.339e+00 
*LOADS
*RC U496:A1 1.725e-02
*RC U516:A1 1.566e-02
*END

*R_NET n259 4.679e+00
*DRIVER U679:ZN
*CELL INV_X1
*C2_R1_C1 2.339e+00 1.407e-02 2.339e+00 
*LOADS
*RC U493:A1 1.725e-02
*RC U511:A1 1.566e-02
*END

*R_NET n260 4.679e+00
*DRIVER U680:ZN
*CELL INV_X1
*C2_R1_C1 2.339e+00 1.407e-02 2.339e+00 
*LOADS
*RC U494:A1 1.725e-02
*RC U515:A1 1.566e-02
*END

*R_NET n261 4.679e+00
*DRIVER U678:ZN
*CELL INV_X1
*C2_R1_C1 2.339e+00 1.407e-02 2.339e+00 
*LOADS
*RC U492:A1 1.725e-02
*RC U510:A1 1.566e-02
*END

*R_NET n262 3.081e+00
*DRIVER U630:ZN
*CELL NAND2_X1
*C2_R1_C1 1.541e+00 6.236e-03 1.541e+00 
*LOADS
*RC U382:A 1.921e-02
*END

*R_NET n263 3.383e+00
*DRIVER U383:Z
*CELL XOR2_X1
*C2_R1_C1 1.692e+00 6.236e-03 1.692e+00 
*LOADS
*RC U382:B 2.110e-02
*END

*R_NET n264 4.541e+00
*DRIVER U499:ZN
*CELL NOR2_X1
*C2_R1_C1 2.271e+00 1.407e-02 2.271e+00 
*LOADS
*RC U490:A2 1.628e-02
*RC U630:A1 1.566e-02
*END

*R_NET n265 2.314e+00
*DRIVER U631:ZN
*CELL NAND3_X1
*C2_R1_C1 1.157e+00 6.236e-03 1.157e+00 
*LOADS
*RC U630:A2 1.443e-02
*END

*R_NET n266 6.804e+00
*DRIVER U609:ZN
*CELL OR2_X1
*C2_R1_C1 3.402e+00 2.308e-02 3.402e+00 
*LOADS
*RC U509:A1 1.707e-02
*RC U631:A1 1.707e-02
*RC U689:A2 1.836e-02
*END

*R_NET n267 4.623e+00
*DRIVER U595:ZN
*CELL NOR2_X1
*C2_R1_C1 2.312e+00 1.407e-02 2.312e+00 
*LOADS
*RC U549:A 1.686e-02
*RC U657:A1 1.566e-02
*END

*R_NET n268 3.081e+00
*DRIVER U688:ZN
*CELL NAND2_X1
*C2_R1_C1 1.541e+00 6.236e-03 1.541e+00 
*LOADS
*RC U384:A 1.921e-02
*END

*R_NET n269 3.383e+00
*DRIVER U385:Z
*CELL XOR2_X1
*C2_R1_C1 1.692e+00 6.236e-03 1.692e+00 
*LOADS
*RC U384:B 2.110e-02
*END

*R_NET n270 4.679e+00
*DRIVER U659:ZN
*CELL NAND2_X1
*C2_R1_C1 2.339e+00 1.407e-02 2.339e+00 
*LOADS
*RC U500:A1 1.725e-02
*RC U688:A1 1.566e-02
*END

*R_NET n271 2.314e+00
*DRIVER U689:ZN
*CELL NAND2_X1
*C2_R1_C1 1.157e+00 6.236e-03 1.157e+00 
*LOADS
*RC U688:A2 1.443e-02
*END

*R_NET n272 4.623e+00
*DRIVER U657:ZN
*CELL NAND2_X1
*C2_R1_C1 2.312e+00 1.407e-02 2.312e+00 
*LOADS
*RC U544:A 1.686e-02
*RC U689:A1 1.566e-02
*END

*R_NET n273 3.081e+00
*DRIVER U634:ZN
*CELL NAND2_X1
*C2_R1_C1 1.541e+00 6.236e-03 1.541e+00 
*LOADS
*RC U386:A 1.921e-02
*END

*R_NET n274 3.383e+00
*DRIVER U387:Z
*CELL XOR2_X1
*C2_R1_C1 1.692e+00 6.236e-03 1.692e+00 
*LOADS
*RC U386:B 2.110e-02
*END

*R_NET n275 2.314e+00
*DRIVER U635:ZN
*CELL NAND4_X1
*C2_R1_C1 1.157e+00 6.236e-03 1.157e+00 
*LOADS
*RC U634:A2 1.443e-02
*END

*R_NET n276 2.208e+00
*DRIVER U522:ZN
*CELL NOR2_X1
*C2_R1_C1 1.104e+00 6.236e-03 1.104e+00 
*LOADS
*RC U635:A3 1.377e-02
*END

*R_NET n277 6.104e+00
*DRIVER U530:ZN
*CELL AND3_X1
*C2_R1_C1 3.052e+00 2.308e-02 3.052e+00 
*LOADS
*RC U596:A2 1.126e-02
*RC U635:A4 1.816e-02
*RC U658:A3 1.754e-02
*END

*R_NET n278 4.849e+00
*DRIVER U591:ZN
*CELL NOR2_X1
*C2_R1_C1 2.425e+00 1.407e-02 2.425e+00 
*LOADS
*RC U522:A1 1.725e-02
*RC U535:A 1.686e-02
*END

*R_NET n279 4.712e+00
*DRIVER U593:ZN
*CELL NOR2_X1