*SPEF "IEEE 1481-1999"
*DESIGN "lower_part_or_ripple_carry_adder16"
*DATE "Tue Aug 18 12:51:21 2020"
*VENDOR "SYNOPSYS INC"
*PROGRAM "Synopsys Design Compiler cmos"
*VERSION "N-2017.09-SP3"
*DESIGN_FLOW "SYNTHESIS"
*DIVIDER /
*DELIMITER :
*BUS_DELIMITER []
*T_UNIT 1.0 NS
*C_UNIT 0.0010 PF
*R_UNIT 1000.0 KOHM
*L_UNIT 1.0 HENRY

*PORTS

add1_i\[15\] I *L 0.000e+00 *S 0.000e+00 0.000e+00 
add1_i\[14\] I *L 0.000e+00 *S 0.000e+00 0.000e+00 
add1_i\[13\] I *L 0.000e+00 *S 0.000e+00 0.000e+00 
add1_i\[12\] I *L 0.000e+00 *S 0.000e+00 0.000e+00 
add1_i\[11\] I *L 0.000e+00 *S 0.000e+00 0.000e+00 
add1_i\[10\] I *L 0.000e+00 *S 0.000e+00 0.000e+00 
add1_i\[9\] I *L 0.000e+00 *S 0.000e+00 0.000e+00 
add1_i\[8\] I *L 0.000e+00 *S 0.000e+00 0.000e+00 
add1_i\[7\] I *L 0.000e+00 *S 0.000e+00 0.000e+00 
add1_i\[6\] I *L 0.000e+00 *S 0.000e+00 0.000e+00 
add1_i\[5\] I *L 0.000e+00 *S 0.000e+00 0.000e+00 
add1_i\[4\] I *L 0.000e+00 *S 0.000e+00 0.000e+00 
add1_i\[3\] I *L 0.000e+00 *S 0.000e+00 0.000e+00 
add1_i\[2\] I *L 0.000e+00 *S 0.000e+00 0.000e+00 
add1_i\[1\] I *L 0.000e+00 *S 0.000e+00 0.000e+00 
add1_i\[0\] I *L 0.000e+00 *S 0.000e+00 0.000e+00 
add2_i\[15\] I *L 0.000e+00 *S 0.000e+00 0.000e+00 
add2_i\[14\] I *L 0.000e+00 *S 0.000e+00 0.000e+00 
add2_i\[13\] I *L 0.000e+00 *S 0.000e+00 0.000e+00 
add2_i\[12\] I *L 0.000e+00 *S 0.000e+00 0.000e+00 
add2_i\[11\] I *L 0.000e+00 *S 0.000e+00 0.000e+00 
add2_i\[10\] I *L 0.000e+00 *S 0.000e+00 0.000e+00 
add2_i\[9\] I *L 0.000e+00 *S 0.000e+00 0.000e+00 
add2_i\[8\] I *L 0.000e+00 *S 0.000e+00 0.000e+00 
add2_i\[7\] I *L 0.000e+00 *S 0.000e+00 0.000e+00 
add2_i\[6\] I *L 0.000e+00 *S 0.000e+00 0.000e+00 
add2_i\[5\] I *L 0.000e+00 *S 0.000e+00 0.000e+00 
add2_i\[4\] I *L 0.000e+00 *S 0.000e+00 0.000e+00 
add2_i\[3\] I *L 0.000e+00 *S 0.000e+00 0.000e+00 
add2_i\[2\] I *L 0.000e+00 *S 0.000e+00 0.000e+00 
add2_i\[1\] I *L 0.000e+00 *S 0.000e+00 0.000e+00 
add2_i\[0\] I *L 0.000e+00 *S 0.000e+00 0.000e+00 
result_o\[16\] O *L 1.000e-01 *S 1.851e-03 1.752e-03 
result_o\[15\] O *L 1.000e-01 *S 2.769e-03 1.850e-03 
result_o\[14\] O *L 1.000e-01 *S 2.769e-03 1.850e-03 
result_o\[13\] O *L 1.000e-01 *S 2.769e-03 1.850e-03 
result_o\[12\] O *L 1.000e-01 *S 2.769e-03 1.850e-03 
result_o\[11\] O *L 1.000e-01 *S 2.769e-03 1.850e-03 
result_o\[10\] O *L 1.000e-01 *S 2.769e-03 1.850e-03 
result_o\[9\] O *L 1.000e-01 *S 2.769e-03 1.850e-03 
result_o\[8\] O *L 1.000e-01 *S 2.769e-03 1.850e-03 
result_o\[7\] O *L 1.000e-01 *S 2.769e-03 1.850e-03 
result_o\[6\] O *L 1.000e-01 *S 2.769e-03 1.850e-03 
result_o\[5\] O *L 1.000e-01 *S 2.769e-03 1.850e-03 
result_o\[4\] O *L 1.000e-01 *S 2.769e-03 1.850e-03 
result_o\[3\] O *L 1.000e-01 *S 1.262e-03 1.189e-03 
result_o\[2\] O *L 1.000e-01 *S 1.262e-03 1.189e-03 
result_o\[1\] O *L 1.000e-01 *S 1.262e-03 1.189e-03 
result_o\[0\] O *L 1.000e-01 *S 1.262e-03 1.189e-03 

*R_NET add1_i\[15\] 5.649e+00
*DRIVER add1_i\[15\]
*CELL NULL
*C2_R1_C1 2.825e+00 1.407e-02 2.825e+00 
*LOADS
*RC U109:A1 1.566e-02
*RC U57:B 2.408e-02
*END

*R_NET add1_i\[14\] 5.649e+00
*DRIVER add1_i\[14\]
*CELL NULL
*C2_R1_C1 2.825e+00 1.407e-02 2.825e+00 
*LOADS
*RC U88:A1 1.566e-02
*RC U59:B 2.408e-02
*END

*R_NET add1_i\[13\] 5.649e+00
*DRIVER add1_i\[13\]
*CELL NULL
*C2_R1_C1 2.825e+00 1.407e-02 2.825e+00 
*LOADS
*RC U85:A1 1.566e-02
*RC U61:B 2.408e-02
*END

*R_NET add1_i\[12\] 5.649e+00
*DRIVER add1_i\[12\]
*CELL NULL
*C2_R1_C1 2.825e+00 1.407e-02 2.825e+00 
*LOADS
*RC U82:A1 1.566e-02
*RC U63:B 2.408e-02
*END

*R_NET add1_i\[11\] 5.649e+00
*DRIVER add1_i\[11\]
*CELL NULL
*C2_R1_C1 2.825e+00 1.407e-02 2.825e+00 
*LOADS
*RC U106:A1 1.566e-02
*RC U65:B 2.408e-02
*END

*R_NET add1_i\[10\] 5.649e+00
*DRIVER add1_i\[10\]
*CELL NULL
*C2_R1_C1 2.825e+00 1.407e-02 2.825e+00 
*LOADS
*RC U103:A1 1.566e-02
*RC U67:B 2.408e-02
*END

*R_NET add1_i\[9\] 5.649e+00
*DRIVER add1_i\[9\]
*CELL NULL
*C2_R1_C1 2.825e+00 1.407e-02 2.825e+00 
*LOADS
*RC U100:A1 1.566e-02
*RC U68:B 2.408e-02
*END

*R_NET add1_i\[8\] 5.649e+00
*DRIVER add1_i\[8\]
*CELL NULL
*C2_R1_C1 2.825e+00 1.407e-02 2.825e+00 
*LOADS
*RC U97:A1 1.566e-02
*RC U69:B 2.408e-02
*END

*R_NET add1_i\[7\] 5.649e+00
*DRIVER add1_i\[7\]
*CELL NULL
*C2_R1_C1 2.825e+00 1.407e-02 2.825e+00 
*LOADS
*RC U94:A1 1.566e-02
*RC U70:B 2.408e-02
*END

*R_NET add1_i\[6\] 5.649e+00
*DRIVER add1_i\[6\]
*CELL NULL
*C2_R1_C1 2.825e+00 1.407e-02 2.825e+00 
*LOADS
*RC U79:A1 1.566e-02
*RC U71:B 2.408e-02
*END

*R_NET add1_i\[5\] 5.649e+00
*DRIVER add1_i\[5\]
*CELL NULL
*C2_R1_C1 2.825e+00 1.407e-02 2.825e+00 
*LOADS
*RC U76:A1 1.566e-02
*RC U72:B 2.408e-02
*END

*R_NET add1_i\[4\] 5.449e+00
*DRIVER add1_i\[4\]
*CELL NULL
*C2_R1_C1 2.725e+00 1.407e-02 2.725e+00 
*LOADS
*RC U73:B 2.296e-02
*RC U91:A1 1.538e-02
*END

*R_NET add1_i\[3\] 6.160e+00
*DRIVER add1_i\[3\]
*CELL NULL
*C2_R1_C1 3.080e+00 2.308e-02 3.080e+00 
*LOADS
*RC U74:A2 1.836e-02
*RC U91:A2 1.751e-02
*RC U114:A2 1.152e-02
*END

*R_NET add1_i\[2\] 1.454e+00
*DRIVER add1_i\[2\]
*CELL NULL
*C2_R1_C1 7.272e-01 6.236e-03 7.272e-01 
*LOADS
*RC U113:A1 9.069e-03
*END

*R_NET add1_i\[1\] 1.454e+00
*DRIVER add1_i\[1\]
*CELL NULL
*C2_R1_C1 7.272e-01 6.236e-03 7.272e-01 
*LOADS
*RC U112:A1 9.069e-03
*END

*R_NET add1_i\[0\] 1.454e+00
*DRIVER add1_i\[0\]
*CELL NULL
*C2_R1_C1 7.272e-01 6.236e-03 7.272e-01 
*LOADS
*RC U111:A1 9.069e-03
*END

*R_NET add2_i\[15\] 5.347e+00
*DRIVER add2_i\[15\]
*CELL NULL
*C2_R1_C1 2.674e+00 1.407e-02 2.674e+00 
*LOADS
*RC U110:A1 1.566e-02
*RC U56:A 2.195e-02
*END

*R_NET add2_i\[14\] 5.347e+00
*DRIVER add2_i\[14\]
*CELL NULL
*C2_R1_C1 2.674e+00 1.407e-02 2.674e+00 
*LOADS
*RC U89:A1 1.566e-02
*RC U58:A 2.195e-02
*END

*R_NET add2_i\[13\] 5.347e+00
*DRIVER add2_i\[13\]
*CELL NULL
*C2_R1_C1 2.674e+00 1.407e-02 2.674e+00 
*LOADS
*RC U86:A1 1.566e-02
*RC U60:A 2.195e-02
*END

*R_NET add2_i\[12\] 5.347e+00
*DRIVER add2_i\[12\]
*CELL NULL
*C2_R1_C1 2.674e+00 1.407e-02 2.674e+00 
*LOADS
*RC U83:A1 1.566e-02
*RC U62:A 2.195e-02
*END

*R_NET add2_i\[11\] 5.347e+00
*DRIVER add2_i\[11\]
*CELL NULL
*C2_R1_C1 2.674e+00 1.407e-02 2.674e+00 
*LOADS
*RC U107:A1 1.566e-02
*RC U64:A 2.195e-02
*END

*R_NET add2_i\[10\] 5.347e+00
*DRIVER add2_i\[10\]
*CELL NULL
*C2_R1_C1 2.674e+00 1.407e-02 2.674e+00 
*LOADS
*RC U104:A1 1.566e-02
*RC U66:A 2.195e-02
*END

*R_NET add2_i\[9\] 5.347e+00
*DRIVER add2_i\[9\]
*CELL NULL
*C2_R1_C1 2.674e+00 1.407e-02 2.674e+00 
*LOADS
*RC U101:A1 1.566e-02
*RC U50:A 2.195e-02
*END

*R_NET add2_i\[8\] 5.347e+00
*DRIVER add2_i\[8\]
*CELL NULL
*C2_R1_C1 2.674e+00 1.407e-02 2.674e+00 
*LOADS
*RC U98:A1 1.566e-02
*RC U51:A 2.195e-02
*END

*R_NET add2_i\[7\] 5.347e+00
*DRIVER add2_i\[7\]
*CELL NULL
*C2_R1_C1 2.674e+00 1.407e-02 2.674e+00 
*LOADS
*RC U95:A1 1.566e-02
*RC U52:A 2.195e-02
*END

*R_NET add2_i\[6\] 5.347e+00
*DRIVER add2_i\[6\]
*CELL NULL
*C2_R1_C1 2.674e+00 1.407e-02 2.674e+00 
*LOADS
*RC U80:A1 1.566e-02
*RC U53:A 2.195e-02
*END

*R_NET add2_i\[5\] 5.347e+00
*DRIVER add2_i\[5\]
*CELL NULL
*C2_R1_C1 2.674e+00 1.407e-02 2.674e+00 
*LOADS
*RC U77:A1 1.566e-02
*RC U54:A 2.195e-02
*END

*R_NET add2_i\[4\] 5.347e+00
*DRIVER add2_i\[4\]
*CELL NULL
*C2_R1_C1 2.674e+00 1.407e-02 2.674e+00 
*LOADS
*RC U92:A1 1.566e-02
*RC U55:A 2.195e-02
*END

*R_NET add2_i\[3\] 6.152e+00
*DRIVER add2_i\[3\]
*CELL NULL
*C2_R1_C1 3.076e+00 2.308e-02 3.076e+00 
*LOADS
*RC U74:A1 1.738e-02
*RC U91:A3 1.820e-02
*RC U114:A1 1.175e-02
*END

*R_NET add2_i\[2\] 1.426e+00
*DRIVER add2_i\[2\]
*CELL NULL
*C2_R1_C1 7.128e-01 6.236e-03 7.128e-01 
*LOADS
*RC U113:A2 8.889e-03
*END

*R_NET add2_i\[1\] 1.426e+00
*DRIVER add2_i\[1\]
*CELL NULL
*C2_R1_C1 7.128e-01 6.236e-03 7.128e-01 
*LOADS
*RC U112:A2 8.889e-03
*END

*R_NET add2_i\[0\] 1.426e+00
*DRIVER add2_i\[0\]
*CELL NULL
*C2_R1_C1 7.128e-01 6.236e-03 7.128e-01 
*LOADS
*RC U111:A2 8.889e-03
*END

*R_NET result_o\[16\] 4.097e-01
*DRIVER U108:ZN
*CELL NAND2_X1
*C2_R1_C1 2.049e-01 6.236e-03 2.049e-01 
*LOADS
*RC result_o\[16\] 2.555e-03
*END

*R_NET result_o\[15\] 4.097e-01
*DRIVER U56:Z
*CELL XOR2_X1
*C2_R1_C1 2.049e-01 6.236e-03 2.049e-01 
*LOADS
*RC result_o\[15\] 2.555e-03
*END

*R_NET result_o\[14\] 4.097e-01
*DRIVER U58:Z
*CELL XOR2_X1
*C2_R1_C1 2.049e-01 6.236e-03 2.049e-01 
*LOADS
*RC result_o\[14\] 2.555e-03
*END

*R_NET result_o\[13\] 4.097e-01
*DRIVER U60:Z
*CELL XOR2_X1
*C2_R1_C1 2.049e-01 6.236e-03 2.049e-01 
*LOADS
*RC result_o\[13\] 2.555e-03
*END

*R_NET result_o\[12\] 4.097e-01
*DRIVER U62:Z
*CELL XOR2_X1
*C2_R1_C1 2.049e-01 6.236e-03 2.049e-01 
*LOADS
*RC result_o\[12\] 2.555e-03
*END

*R_NET result_o\[11\] 4.097e-01
*DRIVER U64:Z
*CELL XOR2_X1
*C2_R1_C1 2.049e-01 6.236e-03 2.049e-01 
*LOADS
*RC result_o\[11\] 2.555e-03
*END

*R_NET result_o\[10\] 4.097e-01
*DRIVER U66:Z
*CELL XOR2_X1
*C2_R1_C1 2.049e-01 6.236e-03 2.049e-01 
*LOADS
*RC result_o\[10\] 2.555e-03
*END

*R_NET result_o\[9\] 4.097e-01
*DRIVER U50:Z
*CELL XOR2_X1
*C2_R1_C1 2.049e-01 6.236e-03 2.049e-01 
*LOADS
*RC result_o\[9\] 2.555e-03
*END

*R_NET result_o\[8\] 4.097e-01
*DRIVER U51:Z
*CELL XOR2_X1
*C2_R1_C1 2.049e-01 6.236e-03 2.049e-01 
*LOADS
*RC result_o\[8\] 2.555e-03
*END

*R_NET result_o\[7\] 4.097e-01
*DRIVER U52:Z
*CELL XOR2_X1
*C2_R1_C1 2.049e-01 6.236e-03 2.049e-01 
*LOADS
*RC result_o\[7\] 2.555e-03
*END

*R_NET result_o\[6\] 4.097e-01
*DRIVER U53:Z
*CELL XOR2_X1
*C2_R1_C1 2.049e-01 6.236e-03 2.049e-01 
*LOADS
*RC result_o\[6\] 2.555e-03
*END

*R_NET result_o\[5\] 4.097e-01
*DRIVER U54:Z
*CELL XOR2_X1
*C2_R1_C1 2.049e-01 6.236e-03 2.049e-01 
*LOADS
*RC result_o\[5\] 2.555e-03
*END

*R_NET result_o\[4\] 4.097e-01
*DRIVER U55:Z
*CELL XOR2_X1
*C2_R1_C1 2.049e-01 6.236e-03 2.049e-01 
*LOADS
*RC result_o\[4\] 2.555e-03
*END

*R_NET result_o\[3\] 4.097e-01
*DRIVER U114:ZN
*CELL OR2_X1
*C2_R1_C1 2.049e-01 6.236e-03 2.049e-01 
*LOADS
*RC result_o\[3\] 2.555e-03
*END

*R_NET result_o\[2\] 4.097e-01
*DRIVER U113:ZN
*CELL OR2_X1
*C2_R1_C1 2.049e-01 6.236e-03 2.049e-01 
*LOADS
*RC result_o\[2\] 2.555e-03
*END

*R_NET result_o\[1\] 4.097e-01
*DRIVER U112:ZN
*CELL OR2_X1
*C2_R1_C1 2.049e-01 6.236e-03 2.049e-01 
*LOADS
*RC result_o\[1\] 2.555e-03
*END

*R_NET result_o\[0\] 4.097e-01
*DRIVER U111:ZN
*CELL OR2_X1
*C2_R1_C1 2.049e-01 6.236e-03 2.049e-01 
*LOADS
*RC result_o\[0\] 2.555e-03
*END

*R_NET n36 5.777e+00
*DRIVER U68:Z
*CELL XOR2_X1
*C2_R1_C1 2.888e+00 1.407e-02 2.888e+00 
*LOADS
*RC U101:A2 1.656e-02
*RC U50:B 2.408e-02
*END

*R_NET n37 5.777e+00
*DRIVER U69:Z
*CELL XOR2_X1
*C2_R1_C1 2.888e+00 1.407e-02 2.888e+00 
*LOADS
*RC U98:A2 1.656e-02
*RC U51:B 2.408e-02
*END

*R_NET n38 5.777e+00
*DRIVER U70:Z
*CELL XOR2_X1
*C2_R1_C1 2.888e+00 1.407e-02 2.888e+00 
*LOADS
*RC U95:A2 1.656e-02
*RC U52:B 2.408e-02
*END

*R_NET n39 5.777e+00
*DRIVER U71:Z
*CELL XOR2_X1
*C2_R1_C1 2.888e+00 1.407e-02 2.888e+00 
*LOADS
*RC U80:A2 1.656e-02
*RC U53:B 2.408e-02
*END

*R_NET n40 5.777e+00
*DRIVER U72:Z
*CELL XOR2_X1
*C2_R1_C1 2.888e+00 1.407e-02 2.888e+00 
*LOADS
*RC U77:A2 1.656e-02
*RC U54:B 2.408e-02
*END

*R_NET n41 5.777e+00
*DRIVER U73:ZN
*CELL XNOR2_X1
*C2_R1_C1 2.888e+00 1.407e-02 2.888e+00 
*LOADS
*RC U92:A2 1.656e-02
*RC U55:B 2.408e-02
*END

*R_NET n42 2.187e+00
*DRIVER U109:ZN
*CELL NAND2_X1
*C2_R1_C1 1.093e+00 6.236e-03 1.093e+00 
*LOADS
*RC U108:A1 1.364e-02
*END

*R_NET n43 2.314e+00
*DRIVER U110:ZN
*CELL NAND2_X1
*C2_R1_C1 1.157e+00 6.236e-03 1.157e+00 
*LOADS
*RC U108:A2 1.443e-02
*END

*R_NET n44 5.777e+00
*DRIVER U57:Z
*CELL XOR2_X1
*C2_R1_C1 2.888e+00 1.407e-02 2.888e+00 
*LOADS
*RC U110:A2 1.656e-02
*RC U56:B 2.408e-02
*END

*R_NET n45 5.475e+00
*DRIVER U87:ZN
*CELL NAND2_X1
*C2_R1_C1 2.737e+00 1.407e-02 2.737e+00 
*LOADS
*RC U109:A2 1.656e-02
*RC U57:A 2.195e-02
*END

*R_NET n46 2.187e+00
*DRIVER U88:ZN
*CELL NAND2_X1
*C2_R1_C1 1.093e+00 6.236e-03 1.093e+00 
*LOADS
*RC U87:A1 1.364e-02
*END

*R_NET n47 2.314e+00
*DRIVER U89:ZN
*CELL NAND2_X1
*C2_R1_C1 1.157e+00 6.236e-03 1.157e+00 
*LOADS
*RC U87:A2 1.443e-02
*END

*R_NET n48 5.777e+00
*DRIVER U59:Z
*CELL XOR2_X1
*C2_R1_C1 2.888e+00 1.407e-02 2.888e+00 
*LOADS
*RC U89:A2 1.656e-02
*RC U58:B 2.408e-02
*END

*R_NET n49 5.475e+00
*DRIVER U84:ZN
*CELL NAND2_X1
*C2_R1_C1 2.737e+00 1.407e-02 2.737e+00 
*LOADS
*RC U88:A2 1.656e-02
*RC U59:A 2.195e-02
*END

*R_NET n50 2.187e+00
*DRIVER U85:ZN
*CELL NAND2_X1
*C2_R1_C1 1.093e+00 6.236e-03 1.093e+00 
*LOADS
*RC U84:A1 1.364e-02
*END

*R_NET n51 2.314e+00
*DRIVER U86:ZN
*CELL NAND2_X1
*C2_R1_C1 1.157e+00 6.236e-03 1.157e+00 
*LOADS
*RC U84:A2 1.443e-02
*END

*R_NET n52 5.777e+00
*DRIVER U61:Z
*CELL XOR2_X1
*C2_R1_C1 2.888e+00 1.407e-02 2.888e+00 
*LOADS
*RC U86:A2 1.656e-02
*RC U60:B 2.408e-02
*END

*R_NET n53 5.475e+00
*DRIVER U81:ZN
*CELL NAND2_X1
*C2_R1_C1 2.737e+00 1.407e-02 2.737e+00 
*LOADS
*RC U85:A2 1.656e-02
*RC U61:A 2.195e-02
*END

*R_NET n54 2.187e+00
*DRIVER U82:ZN
*CELL NAND2_X1
*C2_R1_C1 1.093e+00 6.236e-03 1.093e+00 
*LOADS
*RC U81:A1 1.364e-02
*END

*R_NET n55 2.314e+00
*DRIVER U83:ZN
*CELL NAND2_X1
*C2_R1_C1 1.157e+00 6.236e-03 1.157e+00 
*LOADS
*RC U81:A2 1.443e-02
*END

*R_NET n56 5.777e+00
*DRIVER U63:Z
*CELL XOR2_X1
*C2_R1_C1 2.888e+00 1.407e-02 2.888e+00 
*LOADS
*RC U83:A2 1.656e-02
*RC U62:B 2.408e-02
*END

*R_NET n57 5.475e+00
*DRIVER U105:ZN
*CELL NAND2_X1
*C2_R1_C1 2.737e+00 1.407e-02 2.737e+00 
*LOADS
*RC U82:A2 1.656e-02
*RC U63:A 2.195e-02
*END

*R_NET n58 2.187e+00
*DRIVER U106:ZN
*CELL NAND2_X1
*C2_R1_C1 1.093e+00 6.236e-03 1.093e+00 
*LOADS
*RC U105:A1 1.364e-02
*END

*R_NET n59 2.314e+00
*DRIVER U107:ZN
*CELL NAND2_X1
*C2_R1_C1 1.157e+00 6.236e-03 1.157e+00 
*LOADS
*RC U105:A2 1.443e-02
*END

*R_NET n60 5.777e+00
*DRIVER U65:Z
*CELL XOR2_X1
*C2_R1_C1 2.888e+00 1.407e-02 2.888e+00 
*LOADS
*RC U107:A2 1.656e-02
*RC U64:B 2.408e-02
*END

*R_NET n61 5.475e+00
*DRIVER U102:ZN
*CELL NAND2_X1
*C2_R1_C1 2.737e+00 1.407e-02 2.737e+00 
*LOADS
*RC U106:A2 1.656e-02
*RC U65:A 2.195e-02
*END

*R_NET n62 2.187e+00
*DRIVER U103:ZN
*CELL NAND2_X1
*C2_R1_C1 1.093e+00 6.236e-03 1.093e+00 
*LOADS
*RC U102:A1 1.364e-02
*END

*R_NET n63 2.314e+00
*DRIVER U104:ZN
*CELL NAND2_X1
*C2_R1_C1 1.157e+00 6.236e-03 1.157e+00 
*LOADS
*RC U102:A2 1.443e-02
*END

*R_NET n64 5.777e+00
*DRIVER U67:Z
*CELL XOR2_X1
*C2_R1_C1 2.888e+00 1.407e-02 2.888e+00 
*LOADS
*RC U104:A2 1.656e-02
*RC U66:B 2.408e-02
*END

*R_NET n65 5.475e+00
*DRIVER U99:ZN
*CELL NAND2_X1
*C2_R1_C1 2.737e+00 1.407e-02 2.737e+00 
*LOADS
*RC U103:A2 1.656e-02
*RC U67:A 2.195e-02
*END

*R_NET n66 2.187e+00
*DRIVER U100:ZN
*CELL NAND2_X1
*C2_R1_C1 1.093e+00 6.236e-03 1.093e+00 
*LOADS
*RC U99:A1 1.364e-02
*END

*R_NET n67 2.314e+00
*DRIVER U101:ZN
*CELL NAND2_X1
*C2_R1_C1 1.157e+00 6.236e-03 1.157e+00 
*LOADS
*RC U99:A2 1.443e-02
*END

*R_NET n68 5.475e+00
*DRIVER U96:ZN
*CELL NAND2_X1
*C2_R1_C1 2.737e+00 1.407e-02 2.737e+00 
*LOADS
*RC U100:A2 1.656e-02
*RC U68:A 2.195e-02
*END

*R_NET n69 2.187e+00
*DRIVER U97:ZN
*CELL NAND2_X1
*C2_R1_C1 1.093e+00 6.236e-03 1.093e+00 
*LOADS
*RC U96:A1 1.364e-02
*END

*R_NET n70 2.314e+00
*DRIVER U98:ZN
*CELL NAND2_X1
*C2_R1_C1 1.157e+00 6.236e-03 1.157e+00 
*LOADS
*RC U96:A2 1.443e-02
*END

*R_NET n71 5.475e+00
*DRIVER U93:ZN
*CELL NAND2_X1
*C2_R1_C1 2.737e+00 1.407e-02 2.737e+00 
*LOADS
*RC U97:A2 1.656e-02
*RC U69:A 2.195e-02
*END

*R_NET n72 2.187e+00
*DRIVER U94:ZN
*CELL NAND2_X1
*C2_R1_C1 1.093e+00 6.236e-03 1.093e+00 
*LOADS
*RC U93:A1 1.364e-02
*END

*R_NET n73 2.314e+00
*DRIVER U95:ZN
*CELL NAND2_X1
*C2_R1_C1 1.157e+00 6.236e-03 1.157e+00 
*LOADS
*RC U93:A2 1.443e-02
*END

*R_NET n74 5.475e+00
*DRIVER U78:ZN
*CELL NAND2_X1
*C2_R1_C1 2.737e+00 1.407e-02 2.737e+00 
*LOADS
*RC U94:A2 1.656e-02
*RC U70:A 2.195e-02
*END

*R_NET n75 2.187e+00
*DRIVER U79:ZN
*CELL NAND2_X1
*C2_R1_C1 1.093e+00 6.236e-03 1.093e+00 
*LOADS
*RC U78:A1 1.364e-02
*END

*R_NET n76 2.314e+00
*DRIVER U80:ZN
*CELL NAND2_X1
*C2_R1_C1 1.157e+00 6.236e-03 1.157e+00 
*LOADS
*RC U78:A2 1.443e-02
*END

*R_NET n77 5.475e+00
*DRIVER U75:ZN
*CELL NAND2_X1
*C2_R1_C1 2.737e+00 1.407e-02 2.737e+00 
*LOADS
*RC U79:A2 1.656e-02
*RC U71:A 2.195e-02
*END

*R_NET n78 2.187e+00
*DRIVER U76:ZN
*CELL NAND2_X1
*C2_R1_C1 1.093e+00 6.236e-03 1.093e+00 
*LOADS
*RC U75:A1 1.364e-02
*END

*R_NET n79 2.314e+00
*DRIVER U77:ZN
*CELL NAND2_X1
*C2_R1_C1 1.157e+00 6.236e-03 1.157e+00 
*LOADS
*RC U75:A2 1.443e-02
*END

*R_NET n80 5.475e+00
*DRIVER U90:ZN
*CELL NAND2_X1
*C2_R1_C1 2.737e+00 1.407e-02 2.737e+00 
*LOADS
*RC U76:A2 1.656e-02
*RC U72:A 2.195e-02
*END

*R_NET n81 2.187e+00
*DRIVER U92:ZN
*CELL NAND2_X1
*C2_R1_C1 1.093e+00 6.236e-03 1.093e+00 
*LOADS
*RC U90:A1 1.364e-02
*END

*R_NET n82 2.314e+00
*DRIVER U91:ZN
*CELL NAND3_X1
*C2_R1_C1 1.157e+00 6.236e-03 1.157e+00 
*LOADS
*RC U90:A2 1.443e-02
*END

*R_NET n83 3.106e+00
*DRIVER U74:ZN
*CELL NAND2_X1
*C2_R1_C1 1.553e+00 6.236e-03 1.553e+00 
*LOADS
*RC U73:A 1.937e-02
*END
