*SPEF "IEEE 1481-1999"
*DESIGN "error_tolerant_type2_adder16"
*DATE "Thu Aug 20 10:00:06 2020"
*VENDOR "SYNOPSYS INC"
*PROGRAM "Synopsys Design Compiler cmos"
*VERSION "N-2017.09-SP3"
*DESIGN_FLOW "SYNTHESIS"
*DIVIDER /
*DELIMITER :
*BUS_DELIMITER []
*T_UNIT 1.0 NS
*C_UNIT 0.0010 PF
*R_UNIT 1000.0 KOHM
*L_UNIT 1.0 HENRY

*PORTS

add1_i\[15\] I *L 0.000e+00 *S 0.000e+00 0.000e+00 
add1_i\[14\] I *L 0.000e+00 *S 0.000e+00 0.000e+00 
add1_i\[13\] I *L 0.000e+00 *S 0.000e+00 0.000e+00 
add1_i\[12\] I *L 0.000e+00 *S 0.000e+00 0.000e+00 
add1_i\[11\] I *L 0.000e+00 *S 0.000e+00 0.000e+00 
add1_i\[10\] I *L 0.000e+00 *S 0.000e+00 0.000e+00 
add1_i\[9\] I *L 0.000e+00 *S 0.000e+00 0.000e+00 
add1_i\[8\] I *L 0.000e+00 *S 0.000e+00 0.000e+00 
add1_i\[7\] I *L 0.000e+00 *S 0.000e+00 0.000e+00 
add1_i\[6\] I *L 0.000e+00 *S 0.000e+00 0.000e+00 
add1_i\[5\] I *L 0.000e+00 *S 0.000e+00 0.000e+00 
add1_i\[4\] I *L 0.000e+00 *S 0.000e+00 0.000e+00 
add1_i\[3\] I *L 0.000e+00 *S 0.000e+00 0.000e+00 
add1_i\[2\] I *L 0.000e+00 *S 0.000e+00 0.000e+00 
add1_i\[1\] I *L 0.000e+00 *S 0.000e+00 0.000e+00 
add1_i\[0\] I *L 0.000e+00 *S 0.000e+00 0.000e+00 
add2_i\[15\] I *L 0.000e+00 *S 0.000e+00 0.000e+00 
add2_i\[14\] I *L 0.000e+00 *S 0.000e+00 0.000e+00 
add2_i\[13\] I *L 0.000e+00 *S 0.000e+00 0.000e+00 
add2_i\[12\] I *L 0.000e+00 *S 0.000e+00 0.000e+00 
add2_i\[11\] I *L 0.000e+00 *S 0.000e+00 0.000e+00 
add2_i\[10\] I *L 0.000e+00 *S 0.000e+00 0.000e+00 
add2_i\[9\] I *L 0.000e+00 *S 0.000e+00 0.000e+00 
add2_i\[8\] I *L 0.000e+00 *S 0.000e+00 0.000e+00 
add2_i\[7\] I *L 0.000e+00 *S 0.000e+00 0.000e+00 
add2_i\[6\] I *L 0.000e+00 *S 0.000e+00 0.000e+00 
add2_i\[5\] I *L 0.000e+00 *S 0.000e+00 0.000e+00 
add2_i\[4\] I *L 0.000e+00 *S 0.000e+00 0.000e+00 
add2_i\[3\] I *L 0.000e+00 *S 0.000e+00 0.000e+00 
add2_i\[2\] I *L 0.000e+00 *S 0.000e+00 0.000e+00 
add2_i\[1\] I *L 0.000e+00 *S 0.000e+00 0.000e+00 
add2_i\[0\] I *L 0.000e+00 *S 0.000e+00 0.000e+00 
result_o\[16\] O *L 1.000e-01 *S 1.851e-03 1.752e-03 
result_o\[15\] O *L 1.000e-01 *S 2.769e-03 1.850e-03 
result_o\[14\] O *L 1.000e-01 *S 2.769e-03 1.850e-03 
result_o\[13\] O *L 1.000e-01 *S 2.769e-03 1.850e-03 
result_o\[12\] O *L 1.000e-01 *S 2.769e-03 1.850e-03 
result_o\[11\] O *L 1.000e-01 *S 2.769e-03 1.850e-03 
result_o\[10\] O *L 1.000e-01 *S 2.769e-03 1.850e-03 
result_o\[9\] O *L 1.000e-01 *S 2.769e-03 1.850e-03 
result_o\[8\] O *L 1.000e-01 *S 2.769e-03 1.850e-03 
result_o\[7\] O *L 1.000e-01 *S 2.769e-03 1.850e-03 
result_o\[6\] O *L 1.000e-01 *S 2.769e-03 1.850e-03 
result_o\[5\] O *L 1.000e-01 *S 2.769e-03 1.850e-03 
result_o\[4\] O *L 1.000e-01 *S 2.769e-03 1.850e-03 
result_o\[3\] O *L 1.000e-01 *S 2.769e-03 1.850e-03 
result_o\[2\] O *L 1.000e-01 *S 2.769e-03 1.850e-03 
result_o\[1\] O *L 1.000e-01 *S 2.769e-03 1.850e-03 
result_o\[0\] O *L 1.000e-01 *S 1.851e-03 1.752e-03 

*R_NET add1_i\[15\] 7.213e+00
*DRIVER add1_i\[15\]
*CELL NULL
*C2_R1_C1 3.606e+00 2.308e-02 3.606e+00 
*LOADS
*RC U201:A2 1.152e-02
*RC U199:A1 1.738e-02
*RC U104:B 2.659e-02
*END

*R_NET add1_i\[14\] 9.579e+00
*DRIVER add1_i\[14\]
*CELL NULL
*C2_R1_C1 4.789e+00 3.293e-02 4.789e+00 
*LOADS
*RC U178:A1 1.882e-02
*RC U197:A2 1.255e-02
*RC U195:A1 1.882e-02
*RC U106:B 2.867e-02
*END

*R_NET add1_i\[13\] 9.706e+00
*DRIVER add1_i\[13\]
*CELL NULL
*C2_R1_C1 4.853e+00 3.293e-02 4.853e+00 
*LOADS
*RC U135:A1 1.882e-02
*RC U193:A2 1.255e-02
*RC U191:A2 1.987e-02
*RC U108:B 2.867e-02
*END

*R_NET add1_i\[12\] 7.924e+00
*DRIVER add1_i\[12\]
*CELL NULL
*C2_R1_C1 3.962e+00 2.308e-02 3.962e+00 
*LOADS
*RC U132:A1 1.738e-02
*RC U192:A1 1.707e-02
*RC U110:B 2.659e-02
*END

*R_NET add1_i\[11\] 7.213e+00
*DRIVER add1_i\[11\]
*CELL NULL
*C2_R1_C1 3.606e+00 2.308e-02 3.606e+00 
*LOADS
*RC U154:A2 1.152e-02
*RC U152:A1 1.738e-02
*RC U112:B 2.659e-02
*END

*R_NET add1_i\[10\] 9.579e+00
*DRIVER add1_i\[10\]
*CELL NULL
*C2_R1_C1 4.789e+00 3.293e-02 4.789e+00 
*LOADS
*RC U174:A2 1.255e-02
*RC U172:A1 1.882e-02
*RC U176:A1 1.882e-02
*RC U114:B 2.867e-02
*END

*R_NET add1_i\[9\] 9.706e+00
*DRIVER add1_i\[9\]
*CELL NULL
*C2_R1_C1 4.853e+00 3.293e-02 4.853e+00 
*LOADS
*RC U141:A1 1.882e-02
*RC U162:A2 1.255e-02
*RC U160:A2 1.987e-02
*RC U115:B 2.867e-02
*END

*R_NET add1_i\[8\] 7.924e+00
*DRIVER add1_i\[8\]
*CELL NULL
*C2_R1_C1 3.962e+00 2.308e-02 3.962e+00 
*LOADS
*RC U138:A1 1.738e-02
*RC U161:A1 1.707e-02
*RC U116:B 2.659e-02
*END

*R_NET add1_i\[7\] 7.213e+00
*DRIVER add1_i\[7\]
*CELL NULL
*C2_R1_C1 3.606e+00 2.308e-02 3.606e+00 
*LOADS
*RC U150:A2 1.152e-02
*RC U148:A1 1.738e-02
*RC U90:B 2.659e-02
*END

*R_NET add1_i\[6\] 9.579e+00
*DRIVER add1_i\[6\]
*CELL NULL
*C2_R1_C1 4.789e+00 3.293e-02 4.789e+00 
*LOADS
*RC U120:A1 1.882e-02
*RC U170:A2 1.255e-02
*RC U168:A1 1.882e-02
*RC U92:B 2.867e-02
*END

*R_NET add1_i\[5\] 9.706e+00
*DRIVER add1_i\[5\]
*CELL NULL
*C2_R1_C1 4.853e+00 3.293e-02 4.853e+00 
*LOADS
*RC U122:A1 1.882e-02
*RC U158:A2 1.255e-02
*RC U156:A2 1.987e-02
*RC U94:B 2.867e-02
*END

*R_NET add1_i\[4\] 7.924e+00
*DRIVER add1_i\[4\]
*CELL NULL
*C2_R1_C1 3.962e+00 2.308e-02 3.962e+00 
*LOADS
*RC U128:A1 1.738e-02
*RC U157:A1 1.707e-02
*RC U96:B 2.659e-02
*END

*R_NET add1_i\[3\] 7.213e+00
*DRIVER add1_i\[3\]
*CELL NULL
*C2_R1_C1 3.606e+00 2.308e-02 3.606e+00 
*LOADS
*RC U146:A2 1.152e-02
*RC U144:A1 1.738e-02
*RC U98:B 2.659e-02
*END

*R_NET add1_i\[2\] 9.579e+00
*DRIVER add1_i\[2\]
*CELL NULL
*C2_R1_C1 4.789e+00 3.293e-02 4.789e+00 
*LOADS
*RC U166:A2 1.255e-02
*RC U164:A1 1.882e-02
*RC U185:A1 1.882e-02
*RC U100:B 2.867e-02
*END

*R_NET add1_i\[1\] 9.608e+00
*DRIVER add1_i\[1\]
*CELL NULL
*C2_R1_C1 4.804e+00 3.293e-02 4.804e+00 
*LOADS
*RC U182:A1 1.279e-02
*RC U180:A1 1.882e-02
*RC U188:A1 1.882e-02
*RC U102:B 2.867e-02
*END

*R_NET add1_i\[0\] 3.819e+00
*DRIVER add1_i\[0\]
*CELL NULL
*C2_R1_C1 1.910e+00 1.407e-02 1.910e+00 
*LOADS
*RC U130:A2 1.656e-02
*RC U183:A2 1.031e-02
*END

*R_NET add2_i\[15\] 5.347e+00
*DRIVER add2_i\[15\]
*CELL NULL
*C2_R1_C1 2.674e+00 1.407e-02 2.674e+00 
*LOADS
*RC U200:A1 1.566e-02
*RC U104:A 2.195e-02
*END

*R_NET add2_i\[14\] 7.799e+00
*DRIVER add2_i\[14\]
*CELL NULL
*C2_R1_C1 3.900e+00 2.308e-02 3.900e+00 
*LOADS
*RC U126:A2 1.836e-02
*RC U196:A1 1.738e-02
*RC U105:A 2.426e-02
*END

*R_NET add2_i\[13\] 9.735e+00
*DRIVER add2_i\[13\]
*CELL NULL
*C2_R1_C1 4.868e+00 3.293e-02 4.868e+00 
*LOADS
*RC U136:A2 1.987e-02
*RC U193:A1 1.279e-02
*RC U191:A1 1.882e-02
*RC U107:B 2.867e-02
*END

*R_NET add2_i\[12\] 8.208e+00
*DRIVER add2_i\[12\]
*CELL NULL
*C2_R1_C1 4.104e+00 2.308e-02 4.104e+00 
*LOADS
*RC U133:A2 1.836e-02
*RC U192:A3 1.820e-02
*RC U109:B 2.659e-02
*END

*R_NET add2_i\[11\] 5.347e+00
*DRIVER add2_i\[11\]
*CELL NULL
*C2_R1_C1 2.674e+00 1.407e-02 2.674e+00 
*LOADS
*RC U153:A1 1.566e-02
*RC U112:A 2.195e-02
*END

*R_NET add2_i\[10\] 7.799e+00
*DRIVER add2_i\[10\]
*CELL NULL
*C2_R1_C1 3.900e+00 2.308e-02 3.900e+00 
*LOADS
*RC U124:A2 1.836e-02
*RC U173:A1 1.738e-02
*RC U113:A 2.426e-02
*END

*R_NET add2_i\[9\] 9.608e+00
*DRIVER add2_i\[9\]
*CELL NULL
*C2_R1_C1 4.804e+00 3.293e-02 4.804e+00 
*LOADS
*RC U142:A1 1.882e-02
*RC U162:A1 1.279e-02
*RC U160:A1 1.882e-02
*RC U87:B 2.867e-02
*END

*R_NET add2_i\[8\] 8.081e+00
*DRIVER add2_i\[8\]
*CELL NULL
*C2_R1_C1 4.040e+00 2.308e-02 4.040e+00 
*LOADS
*RC U139:A1 1.738e-02
*RC U161:A3 1.820e-02
*RC U88:B 2.659e-02
*END

*R_NET add2_i\[7\] 5.347e+00
*DRIVER add2_i\[7\]
*CELL NULL
*C2_R1_C1 2.674e+00 1.407e-02 2.674e+00 
*LOADS
*RC U149:A1 1.566e-02
*RC U90:A 2.195e-02
*END

*R_NET add2_i\[6\] 7.799e+00
*DRIVER add2_i\[6\]
*CELL NULL
*C2_R1_C1 3.900e+00 2.308e-02 3.900e+00 
*LOADS
*RC U125:A2 1.836e-02
*RC U169:A1 1.738e-02
*RC U91:A 2.426e-02
*END

*R_NET add2_i\[5\] 9.433e+00
*DRIVER add2_i\[5\]
*CELL NULL
*C2_R1_C1 4.717e+00 3.293e-02 4.717e+00 
*LOADS
*RC U123:A2 1.987e-02
*RC U158:A1 1.279e-02
*RC U156:A1 1.882e-02
*RC U93:A 2.618e-02
*END

*R_NET add2_i\[4\] 8.208e+00
*DRIVER add2_i\[4\]
*CELL NULL
*C2_R1_C1 4.104e+00 2.308e-02 4.104e+00 
*LOADS
*RC U129:A2 1.836e-02
*RC U157:A3 1.820e-02
*RC U95:B 2.659e-02
*END

*R_NET add2_i\[3\] 5.347e+00
*DRIVER add2_i\[3\]
*CELL NULL
*C2_R1_C1 2.674e+00 1.407e-02 2.674e+00 
*LOADS
*RC U145:A1 1.566e-02
*RC U98:A 2.195e-02
*END

*R_NET add2_i\[2\] 7.799e+00
*DRIVER add2_i\[2\]
*CELL NULL
*C2_R1_C1 3.900e+00 2.308e-02 3.900e+00 
*LOADS
*RC U165:A1 1.738e-02
*RC U186:A2 1.836e-02
*RC U99:A 2.426e-02
*END

*R_NET add2_i\[1\] 8.101e+00
*DRIVER add2_i\[1\]
*CELL NULL
*C2_R1_C1 4.051e+00 2.308e-02 4.051e+00 
*LOADS
*RC U181:A1 1.738e-02
*RC U189:A2 1.836e-02
*RC U101:B 2.659e-02
*END

*R_NET add2_i\[0\] 3.721e+00
*DRIVER add2_i\[0\]
*CELL NULL
*C2_R1_C1 1.860e+00 1.407e-02 1.860e+00 
*LOADS
*RC U130:A1 1.566e-02
*RC U183:A1 1.051e-02
*END

*R_NET result_o\[16\] 4.097e-01
*DRIVER U198:ZN
*CELL NAND2_X1
*C2_R1_C1 2.049e-01 6.236e-03 2.049e-01 
*LOADS
*RC result_o\[16\] 2.555e-03
*END

*R_NET result_o\[15\] 4.097e-01
*DRIVER U103:Z
*CELL XOR2_X1
*C2_R1_C1 2.049e-01 6.236e-03 2.049e-01 
*LOADS
*RC result_o\[15\] 2.555e-03
*END

*R_NET result_o\[14\] 4.097e-01
*DRIVER U105:Z
*CELL XOR2_X1
*C2_R1_C1 2.049e-01 6.236e-03 2.049e-01 
*LOADS
*RC result_o\[14\] 2.555e-03
*END

*R_NET result_o\[13\] 4.097e-01
*DRIVER U107:Z
*CELL XOR2_X1
*C2_R1_C1 2.049e-01 6.236e-03 2.049e-01 
*LOADS
*RC result_o\[13\] 2.555e-03
*END

*R_NET result_o\[12\] 4.097e-01
*DRIVER U109:Z
*CELL XOR2_X1
*C2_R1_C1 2.049e-01 6.236e-03 2.049e-01 
*LOADS
*RC result_o\[12\] 2.555e-03
*END

*R_NET result_o\[11\] 4.097e-01
*DRIVER U111:Z
*CELL XOR2_X1
*C2_R1_C1 2.049e-01 6.236e-03 2.049e-01 
*LOADS
*RC result_o\[11\] 2.555e-03
*END

*R_NET result_o\[10\] 4.097e-01
*DRIVER U113:Z
*CELL XOR2_X1
*C2_R1_C1 2.049e-01 6.236e-03 2.049e-01 
*LOADS
*RC result_o\[10\] 2.555e-03
*END

*R_NET result_o\[9\] 4.097e-01
*DRIVER U87:Z
*CELL XOR2_X1
*C2_R1_C1 2.049e-01 6.236e-03 2.049e-01 
*LOADS
*RC result_o\[9\] 2.555e-03
*END

*R_NET result_o\[8\] 4.097e-01
*DRIVER U88:Z
*CELL XOR2_X1
*C2_R1_C1 2.049e-01 6.236e-03 2.049e-01 
*LOADS
*RC result_o\[8\] 2.555e-03
*END

*R_NET result_o\[7\] 4.097e-01
*DRIVER U89:Z
*CELL XOR2_X1
*C2_R1_C1 2.049e-01 6.236e-03 2.049e-01 
*LOADS
*RC result_o\[7\] 2.555e-03
*END

*R_NET result_o\[6\] 4.097e-01
*DRIVER U91:Z
*CELL XOR2_X1
*C2_R1_C1 2.049e-01 6.236e-03 2.049e-01 
*LOADS
*RC result_o\[6\] 2.555e-03
*END

*R_NET result_o\[5\] 4.097e-01
*DRIVER U93:Z
*CELL XOR2_X1
*C2_R1_C1 2.049e-01 6.236e-03 2.049e-01 
*LOADS
*RC result_o\[5\] 2.555e-03
*END

*R_NET result_o\[4\] 4.097e-01
*DRIVER U95:Z
*CELL XOR2_X1
*C2_R1_C1 2.049e-01 6.236e-03 2.049e-01 
*LOADS
*RC result_o\[4\] 2.555e-03
*END

*R_NET result_o\[3\] 4.097e-01
*DRIVER U97:Z
*CELL XOR2_X1
*C2_R1_C1 2.049e-01 6.236e-03 2.049e-01 
*LOADS
*RC result_o\[3\] 2.555e-03
*END

*R_NET result_o\[2\] 4.097e-01
*DRIVER U99:Z
*CELL XOR2_X1
*C2_R1_C1 2.049e-01 6.236e-03 2.049e-01 
*LOADS
*RC result_o\[2\] 2.555e-03
*END

*R_NET result_o\[1\] 4.097e-01
*DRIVER U101:Z
*CELL XOR2_X1
*C2_R1_C1 2.049e-01 6.236e-03 2.049e-01 
*LOADS
*RC result_o\[1\] 2.555e-03
*END

*R_NET result_o\[0\] 4.097e-01
*DRIVER U118:ZN
*CELL NAND2_X1
*C2_R1_C1 2.049e-01 6.236e-03 2.049e-01 
*LOADS
*RC result_o\[0\] 2.555e-03
*END

*R_NET n66 3.819e+00
*DRIVER U117:ZN
*CELL INV_X1
*C2_R1_C1 1.910e+00 1.407e-02 1.910e+00 
*LOADS
*RC U182:A2 1.031e-02
*RC U180:A2 1.656e-02
*END

*R_NET n67 5.475e+00
*DRIVER U115:Z
*CELL XOR2_X1
*C2_R1_C1 2.737e+00 1.407e-02 2.737e+00 
*LOADS
*RC U142:A2 1.656e-02
*RC U87:A 2.195e-02
*END

*R_NET n68 5.475e+00
*DRIVER U116:Z
*CELL XOR2_X1
*C2_R1_C1 2.737e+00 1.407e-02 2.737e+00 
*LOADS
*RC U139:A2 1.656e-02
*RC U88:A 2.195e-02
*END

*R_NET n69 3.081e+00
*DRIVER U119:ZN
*CELL NAND2_X1
*C2_R1_C1 1.541e+00 6.236e-03 1.541e+00 
*LOADS
*RC U89:A 1.921e-02
*END

*R_NET n70 3.383e+00
*DRIVER U90:Z
*CELL XOR2_X1
*C2_R1_C1 1.692e+00 6.236e-03 1.692e+00 
*LOADS
*RC U89:B 2.110e-02
*END

*R_NET n71 2.187e+00
*DRIVER U120:ZN
*CELL NAND2_X1
*C2_R1_C1 1.093e+00 6.236e-03 1.093e+00 
*LOADS
*RC U119:A1 1.364e-02
*END

*R_NET n72 2.314e+00
*DRIVER U125:ZN
*CELL NAND2_X1
*C2_R1_C1 1.157e+00 6.236e-03 1.157e+00 
*LOADS
*RC U119:A2 1.443e-02
*END

*R_NET n73 5.649e+00
*DRIVER U92:Z
*CELL XOR2_X1
*C2_R1_C1 2.825e+00 1.407e-02 2.825e+00 
*LOADS
*RC U125:A1 1.566e-02
*RC U91:B 2.408e-02
*END

*R_NET n74 5.475e+00
*DRIVER U121:ZN
*CELL NAND2_X1
*C2_R1_C1 2.737e+00 1.407e-02 2.737e+00 
*LOADS
*RC U120:A2 1.656e-02
*RC U92:A 2.195e-02
*END

*R_NET n75 2.187e+00
*DRIVER U122:ZN
*CELL NAND2_X1
*C2_R1_C1 1.093e+00 6.236e-03 1.093e+00 
*LOADS
*RC U121:A1 1.364e-02
*END

*R_NET n76 2.314e+00
*DRIVER U123:ZN
*CELL NAND2_X1
*C2_R1_C1 1.157e+00 6.236e-03 1.157e+00 
*LOADS
*RC U121:A2 1.443e-02
*END

*R_NET n77 5.649e+00
*DRIVER U94:Z
*CELL XOR2_X1
*C2_R1_C1 2.825e+00 1.407e-02 2.825e+00 
*LOADS
*RC U123:A1 1.566e-02
*RC U93:B 2.408e-02
*END

*R_NET n78 5.475e+00
*DRIVER U127:ZN
*CELL NAND2_X1
*C2_R1_C1 2.737e+00 1.407e-02 2.737e+00 
*LOADS
*RC U122:A2 1.656e-02
*RC U94:A 2.195e-02
*END

*R_NET n79 2.187e+00
*DRIVER U128:ZN
*CELL NAND2_X1
*C2_R1_C1 1.093e+00 6.236e-03 1.093e+00 
*LOADS
*RC U127:A1 1.364e-02
*END

*R_NET n80 2.314e+00
*DRIVER U129:ZN
*CELL NAND2_X1
*C2_R1_C1 1.157e+00 6.236e-03 1.157e+00 
*LOADS
*RC U127:A2 1.443e-02
*END

*R_NET n81 5.347e+00
*DRIVER U96:Z
*CELL XOR2_X1
*C2_R1_C1 2.674e+00 1.407e-02 2.674e+00 
*LOADS
*RC U129:A1 1.566e-02
*RC U95:A 2.195e-02
*END

*R_NET n82 5.475e+00
*DRIVER U143:ZN
*CELL NAND2_X1
*C2_R1_C1 2.737e+00 1.407e-02 2.737e+00 
*LOADS
*RC U128:A2 1.656e-02
*RC U96:A 2.195e-02
*END

*R_NET n83 2.187e+00
*DRIVER U144:ZN
*CELL NAND2_X1
*C2_R1_C1 1.093e+00 6.236e-03 1.093e+00 
*LOADS
*RC U143:A1 1.364e-02
*END

*R_NET n84 2.314e+00
*DRIVER U145:ZN
*CELL NAND2_X1
*C2_R1_C1 1.157e+00 6.236e-03 1.157e+00 
*LOADS
*RC U143:A2 1.443e-02
*END

*R_NET n85 2.314e+00
*DRIVER U146:ZN
*CELL OR2_X1
*C2_R1_C1 1.157e+00 6.236e-03 1.157e+00 
*LOADS
*RC U145:A2 1.443e-02
*END

*R_NET n86 3.848e+00
*DRIVER U163:ZN
*CELL NAND2_X1
*C2_R1_C1 1.924e+00 1.407e-02 1.924e+00 
*LOADS
*RC U146:A1 1.051e-02
*RC U144:A2 1.656e-02
*END

*R_NET n87 2.187e+00
*DRIVER U164:ZN
*CELL NAND2_X1
*C2_R1_C1 1.093e+00 6.236e-03 1.093e+00 
*LOADS
*RC U163:A1 1.364e-02
*END

*R_NET n88 2.314e+00
*DRIVER U165:ZN
*CELL NAND2_X1
*C2_R1_C1 1.157e+00 6.236e-03 1.157e+00 
*LOADS
*RC U163:A2 1.443e-02
*END

*R_NET n89 2.314e+00
*DRIVER U166:ZN
*CELL OR2_X1
*C2_R1_C1 1.157e+00 6.236e-03 1.157e+00 
*LOADS
*RC U165:A2 1.443e-02
*END

*R_NET n90 3.848e+00
*DRIVER U179:ZN
*CELL NAND2_X1
*C2_R1_C1 1.924e+00 1.407e-02 1.924e+00 
*LOADS
*RC U166:A1 1.051e-02
*RC U164:A2 1.656e-02
*END

*R_NET n91 2.187e+00
*DRIVER U180:ZN
*CELL NAND2_X1
*C2_R1_C1 1.093e+00 6.236e-03 1.093e+00 
*LOADS
*RC U179:A1 1.364e-02
*END

*R_NET n92 2.314e+00
*DRIVER U181:ZN
*CELL NAND2_X1
*C2_R1_C1 1.157e+00 6.236e-03 1.157e+00 
*LOADS
*RC U179:A2 1.443e-02
*END

*R_NET n93 2.314e+00
*DRIVER U182:ZN
*CELL OR2_X1
*C2_R1_C1 1.157e+00 6.236e-03 1.157e+00 
*LOADS
*RC U181:A2 1.443e-02
*END

*R_NET n94 4.623e+00
*DRIVER U130:ZN
*CELL NAND2_X1
*C2_R1_C1 2.312e+00 1.407e-02 2.312e+00 
*LOADS
*RC U117:A 1.686e-02
*RC U118:A1 1.566e-02
*END

*R_NET n95 3.081e+00
*DRIVER U184:ZN
*CELL NAND2_X1
*C2_R1_C1 1.541e+00 6.236e-03 1.541e+00 
*LOADS
*RC U97:A 1.921e-02
*END

*R_NET n96 3.383e+00
*DRIVER U98:Z
*CELL XOR2_X1
*C2_R1_C1 1.692e+00 6.236e-03 1.692e+00 
*LOADS
*RC U97:B 2.110e-02
*END

*R_NET n97 2.187e+00
*DRIVER U185:ZN
*CELL NAND2_X1
*C2_R1_C1 1.093e+00 6.236e-03 1.093e+00 
*LOADS
*RC U184:A1 1.364e-02
*END

*R_NET n98 2.314e+00
*DRIVER U186:ZN
*CELL NAND2_X1
*C2_R1_C1 1.157e+00 6.236e-03 1.157e+00 
*LOADS
*RC U184:A2 1.443e-02
*END

*R_NET n99 5.649e+00
*DRIVER U100:Z
*CELL XOR2_X1
*C2_R1_C1 2.825e+00 1.407e-02 2.825e+00 
*LOADS
*RC U186:A1 1.566e-02
*RC U99:B 2.408e-02
*END

*R_NET n100 5.475e+00
*DRIVER U187:ZN
*CELL NAND2_X1
*C2_R1_C1 2.737e+00 1.407e-02 2.737e+00 
*LOADS
*RC U185:A2 1.656e-02
*RC U100:A 2.195e-02
*END

*R_NET n101 2.187e+00
*DRIVER U189:ZN
*CELL NAND2_X1
*C2_R1_C1 1.093e+00 6.236e-03 1.093e+00 
*LOADS
*RC U187:A1 1.364e-02
*END

*R_NET n102 2.314e+00
*DRIVER U188:ZN
*CELL NAND2_X1
*C2_R1_C1 1.157e+00 6.236e-03 1.157e+00 
*LOADS
*RC U187:A2 1.443e-02
*END

*R_NET n103 7.927e+00
*DRIVER U183:ZN
*CELL OR2_X1
*C2_R1_C1 3.963e+00 2.308e-02 3.963e+00 
*LOADS
*RC U118:A2 1.836e-02
*RC U188:A2 1.836e-02
*RC U102:A 2.426e-02
*END

*R_NET n104 5.347e+00
*DRIVER U102:Z
*CELL XOR2_X1
*C2_R1_C1 2.674e+00 1.407e-02 2.674e+00 
*LOADS
*RC U189:A1 1.566e-02
*RC U101:A 2.195e-02
*END

*R_NET n105 2.187e+00
*DRIVER U199:ZN
*CELL NAND2_X1
*C2_R1_C1 1.093e+00 6.236e-03 1.093e+00 
*LOADS
*RC U198:A1 1.364e-02
*END

*R_NET n106 2.314e+00
*DRIVER U200:ZN
*CELL NAND2_X1
*C2_R1_C1 1.157e+00 6.236e-03 1.157e+00 
*LOADS
*RC U198:A2 1.443e-02
*END

*R_NET n107 2.314e+00
*DRIVER U201:ZN
*CELL OR2_X1
*C2_R1_C1 1.157e+00 6.236e-03 1.157e+00 
*LOADS
*RC U200:A2 1.443e-02
*END

*R_NET n108 3.848e+00
*DRIVER U194:ZN
*CELL NAND2_X1
*C2_R1_C1 1.924e+00 1.407e-02 1.924e+00 
*LOADS
*RC U201:A1 1.051e-02
*RC U199:A2 1.656e-02
*END

*R_NET n109 2.187e+00
*DRIVER U195:ZN
*CELL NAND2_X1
*C2_R1_C1 1.093e+00 6.236e-03 1.093e+00 
*LOADS
*RC U194:A1 1.364e-02
*END

*R_NET n110 2.314e+00
*DRIVER U196:ZN
*CELL NAND2_X1
*C2_R1_C1 1.157e+00 6.236e-03 1.157e+00 
*LOADS
*RC U194:A2 1.443e-02
*END

*R_NET n111 2.314e+00
*DRIVER U197:ZN
*CELL OR2_X1
*C2_R1_C1 1.157e+00 6.236e-03 1.157e+00 
*LOADS
*RC U196:A2 1.443e-02
*END

*R_NET n112 3.848e+00
*DRIVER U190:ZN
*CELL NAND2_X1
*C2_R1_C1 1.924e+00 1.407e-02 1.924e+00 
*LOADS
*RC U197:A1 1.051e-02
*RC U195:A2 1.656e-02
*END

*R_NET n113 2.187e+00
*DRIVER U191:ZN
*CELL NAND2_X1
*C2_R1_C1 1.093e+00 6.236e-03 1.093e+00 
*LOADS
*RC U190:A1 1.364e-02
*END

*R_NET n114 2.314e+00
*DRIVER U192:ZN
*CELL NAND3_X1
*C2_R1_C1 1.157e+00 6.236e-03 1.157e+00 
*LOADS
*RC U190:A2 1.443e-02
*END

*R_NET n115 2.203e+00
*DRIVER U193:ZN
*CELL OR2_X1
*C2_R1_C1 1.102e+00 6.236e-03 1.102e+00 
*LOADS
*RC U192:A2 1.374e-02
*END

*R_NET n116 3.081e+00
*DRIVER U177:ZN
*CELL NAND2_X1
*C2_R1_C1 1.541e+00 6.236e-03 1.541e+00 
*LOADS
*RC U103:A 1.921e-02
*END

*R_NET n117 3.383e+00
*DRIVER U104:Z
*CELL XOR2_X1
*C2_R1_C1 1.692e+00 6.236e-03 1.692e+00 
*LOADS
*RC U103:B 2.110e-02
*END

*R_NET n118 2.187e+00
*DRIVER U178:ZN
*CELL NAND2_X1
*C2_R1_C1 1.093e+00 6.236e-03 1.093e+00 
*LOADS
*RC U177:A1 1.364e-02
*END

*R_NET n119 2.314e+00
*DRIVER U126:ZN
*CELL NAND2_X1
*C2_R1_C1 1.157e+00 6.236e-03 1.157e+00 
*LOADS
*RC U177:A2 1.443e-02
*END

*R_NET n120 5.649e+00
*DRIVER U106:Z
*CELL XOR2_X1
*C2_R1_C1 2.825e+00 1.407e-02 2.825e+00 
*LOADS
*RC U126:A1 1.566e-02
*RC U105:B 2.408e-02
*END

*R_NET n121 5.475e+00
*DRIVER U134:ZN
*CELL NAND2_X1
*C2_R1_C1 2.737e+00 1.407e-02 2.737e+00 
*LOADS
*RC U178:A2 1.656e-02
*RC U106:A 2.195e-02
*END

*R_NET n122 2.187e+00
*DRIVER U135:ZN
*CELL NAND2_X1
*C2_R1_C1 1.093e+00 6.236e-03 1.093e+00 
*LOADS
*RC U134:A1 1.364e-02
*END

*R_NET n123 2.314e+00
*DRIVER U136:ZN
*CELL NAND2_X1
*C2_R1_C1 1.157e+00 6.236e-03 1.157e+00 
*LOADS
*RC U134:A2 1.443e-02
*END

*R_NET n124 5.347e+00
*DRIVER U108:Z
*CELL XOR2_X1
*C2_R1_C1 2.674e+00 1.407e-02 2.674e+00 
*LOADS
*RC U136:A1 1.566e-02
*RC U107:A 2.195e-02
*END

*R_NET n125 5.475e+00
*DRIVER U131:ZN
*CELL NAND2_X1
*C2_R1_C1 2.737e+00 1.407e-02 2.737e+00 
*LOADS
*RC U135:A2 1.656e-02
*RC U108:A 2.195e-02
*END

*R_NET n126 2.187e+00
*DRIVER U132:ZN
*CELL NAND2_X1
*C2_R1_C1 1.093e+00 6.236e-03 1.093e+00 
*LOADS
*RC U131:A1 1.364e-02
*END

*R_NET n127 2.314e+00
*DRIVER U133:ZN
*CELL NAND2_X1
*C2_R1_C1 1.157e+00 6.236e-03 1.157e+00 
*LOADS
*RC U131:A2 1.443e-02
*END

*R_NET n128 5.347e+00
*DRIVER U110:Z
*CELL XOR2_X1
*C2_R1_C1 2.674e+00 1.407e-02 2.674e+00 
*LOADS
*RC U133:A1 1.566e-02
*RC U109:A 2.195e-02
*END

*R_NET n129 5.475e+00
*DRIVER U151:ZN
*CELL NAND2_X1
*C2_R1_C1 2.737e+00 1.407e-02 2.737e+00 
*LOADS
*RC U132:A2 1.656e-02
*RC U110:A 2.195e-02
*END

*R_NET n130 2.187e+00
*DRIVER U152:ZN
*CELL NAND2_X1
*C2_R1_C1 1.093e+00 6.236e-03 1.093e+00 
*LOADS
*RC U151:A1 1.364e-02
*END

*R_NET n131 2.314e+00
*DRIVER U153:ZN
*CELL NAND2_X1
*C2_R1_C1 1.157e+00 6.236e-03 1.157e+00 
*LOADS
*RC U151:A2 1.443e-02
*END

*R_NET n132 2.314e+00
*DRIVER U154:ZN
*CELL OR2_X1
*C2_R1_C1 1.157e+00 6.236e-03 1.157e+00 
*LOADS
*RC U153:A2 1.443e-02
*END

*R_NET n133 3.848e+00
*DRIVER U171:ZN
*CELL NAND2_X1
*C2_R1_C1 1.924e+00 1.407e-02 1.924e+00 
*LOADS
*RC U154:A1 1.051e-02
*RC U152:A2 1.656e-02
*END

*R_NET n134 2.187e+00
*DRIVER U172:ZN
*CELL NAND2_X1
*C2_R1_C1 1.093e+00 6.236e-03 1.093e+00 
*LOADS
*RC U171:A1 1.364e-02
*END

*R_NET n135 2.314e+00
*DRIVER U173:ZN
*CELL NAND2_X1
*C2_R1_C1 1.157e+00 6.236e-03 1.157e+00 
*LOADS
*RC U171:A2 1.443e-02
*END

*R_NET n136 2.314e+00
*DRIVER U174:ZN
*CELL OR2_X1
*C2_R1_C1 1.157e+00 6.236e-03 1.157e+00 
*LOADS
*RC U173:A2 1.443e-02
*END

*R_NET n137 3.848e+00
*DRIVER U159:ZN
*CELL NAND2_X1
*C2_R1_C1 1.924e+00 1.407e-02 1.924e+00 
*LOADS
*RC U174:A1 1.051e-02
*RC U172:A2 1.656e-02
*END

*R_NET n138 2.187e+00
*DRIVER U160:ZN
*CELL NAND2_X1
*C2_R1_C1 1.093e+00 6.236e-03 1.093e+00 
*LOADS
*RC U159:A1 1.364e-02
*END

*R_NET n139 2.314e+00
*DRIVER U161:ZN
*CELL NAND3_X1
*C2_R1_C1 1.157e+00 6.236e-03 1.157e+00 
*LOADS
*RC U159:A2 1.443e-02
*END

*R_NET n140 2.203e+00
*DRIVER U162:ZN
*CELL OR2_X1
*C2_R1_C1 1.102e+00 6.236e-03 1.102e+00 
*LOADS
*RC U161:A2 1.374e-02
*END

*R_NET n141 3.081e+00
*DRIVER U175:ZN
*CELL NAND2_X1
*C2_R1_C1 1.541e+00 6.236e-03 1.541e+00 
*LOADS
*RC U111:A 1.921e-02
*END

*R_NET n142 3.383e+00
*DRIVER U112:Z
*CELL XOR2_X1
*C2_R1_C1 1.692e+00 6.236e-03 1.692e+00 
*LOADS
*RC U111:B 2.110e-02
*END

*R_NET n143 2.187e+00
*DRIVER U176:ZN
*CELL NAND2_X1
*C2_R1_C1 1.093e+00 6.236e-03 1.093e+00 
*LOADS
*RC U175:A1 1.364e-02
*END

*R_NET n144 2.314e+00
*DRIVER U124:ZN
*CELL NAND2_X1
*C2_R1_C1 1.157e+00 6.236e-03 1.157e+00 
*LOADS
*RC U175:A2 1.443e-02
*END

*R_NET n145 5.649e+00
*DRIVER U114:Z
*CELL XOR2_X1
*C2_R1_C1 2.825e+00 1.407e-02 2.825e+00 
*LOADS
*RC U124:A1 1.566e-02
*RC U113:B 2.408e-02
*END

*R_NET n146 5.475e+00
*DRIVER U140:ZN
*CELL NAND2_X1
*C2_R1_C1 2.737e+00 1.407e-02 2.737e+00 
*LOADS
*RC U176:A2 1.656e-02
*RC U114:A 2.195e-02
*END

*R_NET n147 2.187e+00
*DRIVER U141:ZN
*CELL NAND2_X1
*C2_R1_C1 1.093e+00 6.236e-03 1.093e+00 
*LOADS
*RC U140:A1 1.364e-02
*END

*R_NET n148 2.314e+00
*DRIVER U142:ZN
*CELL NAND2_X1
*C2_R1_C1 1.157e+00 6.236e-03 1.157e+00 
*LOADS
*RC U140:A2 1.443e-02
*END

*R_NET n149 5.475e+00
*DRIVER U137:ZN
*CELL NAND2_X1
*C2_R1_C1 2.737e+00 1.407e-02 2.737e+00 
*LOADS
*RC U141:A2 1.656e-02
*RC U115:A 2.195e-02
*END

*R_NET n150 2.187e+00
*DRIVER U138:ZN
*CELL NAND2_X1
*C2_R1_C1 1.093e+00 6.236e-03 1.093e+00 
*LOADS
*RC U137:A1 1.364e-02
*END

*R_NET n151 2.314e+00
*DRIVER U139:ZN
*CELL NAND2_X1
*C2_R1_C1 1.157e+00 6.236e-03 1.157e+00 
*LOADS
*RC U137:A2 1.443e-02
*END

*R_NET n152 5.475e+00
*DRIVER U147:ZN
*CELL NAND2_X1
*C2_R1_C1 2.737e+00 1.407e-02 2.737e+00 
*LOADS
*RC U138:A2 1.656e-02
*RC U116:A 2.195e-02
*END

*R_NET n153 2.187e+00
*DRIVER U148:ZN
*CELL NAND2_X1
*C2_R1_C1 1.093e+00 6.236e-03 1.093e+00 
*LOADS
*RC U147:A1 1.364e-02
*END

*R_NET n154 2.314e+00
*DRIVER U149:ZN
*CELL NAND2_X1
*C2_R1_C1 1.157e+00 6.236e-03 1.157e+00 
*LOADS
*RC U147:A2 1.443e-02
*END

*R_NET n155 2.314e+00
*DRIVER U150:ZN
*CELL OR2_X1
*C2_R1_C1 1.157e+00 6.236e-03 1.157e+00 
*LOADS
*RC U149:A2 1.443e-02
*END

*R_NET n156 3.848e+00
*DRIVER U167:ZN
*CELL NAND2_X1
*C2_R1_C1 1.924e+00 1.407e-02 1.924e+00 
*LOADS
*RC U150:A1 1.051e-02
*RC U148:A2 1.656e-02
*END

*R_NET n157 2.187e+00
*DRIVER U168:ZN
*CELL NAND2_X1
*C2_R1_C1 1.093e+00 6.236e-03 1.093e+00 
*LOADS
*RC U167:A1 1.364e-02
*END

*R_NET n158 2.314e+00
*DRIVER U169:ZN
*CELL NAND2_X1
*C2_R1_C1 1.157e+00 6.236e-03 1.157e+00 
*LOADS
*RC U167:A2 1.443e-02
*END

*R_NET n159 2.314e+00
*DRIVER U170:ZN
*CELL OR2_X1
*C2_R1_C1 1.157e+00 6.236e-03 1.157e+00 
*LOADS
*RC U169:A2 1.443e-02
*END

*R_NET n160 3.848e+00
*DRIVER U155:ZN
*CELL NAND2_X1
*C2_R1_C1 1.924e+00 1.407e-02 1.924e+00 
*LOADS
*RC U170:A1 1.051e-02
*RC U168:A2 1.656e-02
*END

*R_NET n161 2.187e+00
*DRIVER U156:ZN
*CELL NAND2_X1
*C2_R1_C1 1.093e+00 6.236e-03 1.093e+00 
*LOADS
*RC U155:A1 1.364e-02
*END

*R_NET n162 2.314e+00
*DRIVER U157:ZN
*CELL NAND3_X1
*C2_R1_C1 1.157e+00 6.236e-03 1.157e+00 
*LOADS
*RC U155:A2 1.443e-02
*END

*R_NET n163 2.203e+00
*DRIVER U158:ZN
*CELL OR2_X1
*C2_R1_C1 1.102e+00 6.236e-03 1.102e+00 
*LOADS
*RC U157:A2 1.374e-02
*END
