*SPEF "IEEE 1481-1999"
*DESIGN "xnor_based_ripple_carry_adder16"
*DATE "Wed Aug 19 10:49:03 2020"
*VENDOR "SYNOPSYS INC"
*PROGRAM "Synopsys Design Compiler cmos"
*VERSION "N-2017.09-SP3"
*DESIGN_FLOW "SYNTHESIS"
*DIVIDER /
*DELIMITER :
*BUS_DELIMITER []
*T_UNIT 1.0 NS
*C_UNIT 0.0010 PF
*R_UNIT 1000.0 KOHM
*L_UNIT 1.0 HENRY

*PORTS

add1_i\[15\] I *L 0.000e+00 *S 0.000e+00 0.000e+00 
add1_i\[14\] I *L 0.000e+00 *S 0.000e+00 0.000e+00 
add1_i\[13\] I *L 0.000e+00 *S 0.000e+00 0.000e+00 
add1_i\[12\] I *L 0.000e+00 *S 0.000e+00 0.000e+00 
add1_i\[11\] I *L 0.000e+00 *S 0.000e+00 0.000e+00 
add1_i\[10\] I *L 0.000e+00 *S 0.000e+00 0.000e+00 
add1_i\[9\] I *L 0.000e+00 *S 0.000e+00 0.000e+00 
add1_i\[8\] I *L 0.000e+00 *S 0.000e+00 0.000e+00 
add1_i\[7\] I *L 0.000e+00 *S 0.000e+00 0.000e+00 
add1_i\[6\] I *L 0.000e+00 *S 0.000e+00 0.000e+00 
add1_i\[5\] I *L 0.000e+00 *S 0.000e+00 0.000e+00 
add1_i\[4\] I *L 0.000e+00 *S 0.000e+00 0.000e+00 
add1_i\[3\] I *L 0.000e+00 *S 0.000e+00 0.000e+00 
add1_i\[2\] I *L 0.000e+00 *S 0.000e+00 0.000e+00 
add1_i\[1\] I *L 0.000e+00 *S 0.000e+00 0.000e+00 
add1_i\[0\] I *L 0.000e+00 *S 0.000e+00 0.000e+00 
add2_i\[15\] I *L 0.000e+00 *S 0.000e+00 0.000e+00 
add2_i\[14\] I *L 0.000e+00 *S 0.000e+00 0.000e+00 
add2_i\[13\] I *L 0.000e+00 *S 0.000e+00 0.000e+00 
add2_i\[12\] I *L 0.000e+00 *S 0.000e+00 0.000e+00 
add2_i\[11\] I *L 0.000e+00 *S 0.000e+00 0.000e+00 
add2_i\[10\] I *L 0.000e+00 *S 0.000e+00 0.000e+00 
add2_i\[9\] I *L 0.000e+00 *S 0.000e+00 0.000e+00 
add2_i\[8\] I *L 0.000e+00 *S 0.000e+00 0.000e+00 
add2_i\[7\] I *L 0.000e+00 *S 0.000e+00 0.000e+00 
add2_i\[6\] I *L 0.000e+00 *S 0.000e+00 0.000e+00 
add2_i\[5\] I *L 0.000e+00 *S 0.000e+00 0.000e+00 
add2_i\[4\] I *L 0.000e+00 *S 0.000e+00 0.000e+00 
add2_i\[3\] I *L 0.000e+00 *S 0.000e+00 0.000e+00 
add2_i\[2\] I *L 0.000e+00 *S 0.000e+00 0.000e+00 
add2_i\[1\] I *L 0.000e+00 *S 0.000e+00 0.000e+00 
add2_i\[0\] I *L 0.000e+00 *S 0.000e+00 0.000e+00 
result_o\[16\] O *L 1.000e-01 *S 1.851e-03 1.752e-03 
result_o\[15\] O *L 1.000e-01 *S 2.769e-03 1.850e-03 
result_o\[14\] O *L 1.000e-01 *S 2.769e-03 1.850e-03 
result_o\[13\] O *L 1.000e-01 *S 2.769e-03 1.850e-03 
result_o\[12\] O *L 1.000e-01 *S 2.769e-03 1.850e-03 
result_o\[11\] O *L 1.000e-01 *S 2.769e-03 1.850e-03 
result_o\[10\] O *L 1.000e-01 *S 2.769e-03 1.850e-03 
result_o\[9\] O *L 1.000e-01 *S 2.769e-03 1.850e-03 
result_o\[8\] O *L 1.000e-01 *S 2.769e-03 1.850e-03 
result_o\[7\] O *L 1.000e-01 *S 2.769e-03 1.850e-03 
result_o\[6\] O *L 1.000e-01 *S 2.769e-03 1.850e-03 
result_o\[5\] O *L 1.000e-01 *S 2.769e-03 1.850e-03 
result_o\[4\] O *L 1.000e-01 *S 2.769e-03 1.850e-03 
result_o\[3\] O *L 1.000e-01 *S 2.946e-03 1.653e-03 
result_o\[2\] O *L 1.000e-01 *S 2.946e-03 1.653e-03 
result_o\[1\] O *L 1.000e-01 *S 2.946e-03 1.653e-03 
result_o\[0\] O *L 1.000e-01 *S 1.663e-02 1.093e-02 

*R_NET add1_i\[15\] 5.649e+00
*DRIVER add1_i\[15\]
*CELL NULL
*C2_R1_C1 2.825e+00 1.407e-02 2.825e+00 
*LOADS
*RC U135:A1 1.566e-02
*RC U63:B 2.408e-02
*END

*R_NET add1_i\[14\] 5.649e+00
*DRIVER add1_i\[14\]
*CELL NULL
*C2_R1_C1 2.825e+00 1.407e-02 2.825e+00 
*LOADS
*RC U114:A1 1.566e-02
*RC U65:B 2.408e-02
*END

*R_NET add1_i\[13\] 5.649e+00
*DRIVER add1_i\[13\]
*CELL NULL
*C2_R1_C1 2.825e+00 1.407e-02 2.825e+00 
*LOADS
*RC U111:A1 1.566e-02
*RC U67:B 2.408e-02
*END

*R_NET add1_i\[12\] 5.649e+00
*DRIVER add1_i\[12\]
*CELL NULL
*C2_R1_C1 2.825e+00 1.407e-02 2.825e+00 
*LOADS
*RC U108:A1 1.566e-02
*RC U69:B 2.408e-02
*END

*R_NET add1_i\[11\] 5.649e+00
*DRIVER add1_i\[11\]
*CELL NULL
*C2_R1_C1 2.825e+00 1.407e-02 2.825e+00 
*LOADS
*RC U105:A1 1.566e-02
*RC U71:B 2.408e-02
*END

*R_NET add1_i\[10\] 5.649e+00
*DRIVER add1_i\[10\]
*CELL NULL
*C2_R1_C1 2.825e+00 1.407e-02 2.825e+00 
*LOADS
*RC U102:A1 1.566e-02
*RC U73:B 2.408e-02
*END

*R_NET add1_i\[9\] 5.649e+00
*DRIVER add1_i\[9\]
*CELL NULL
*C2_R1_C1 2.825e+00 1.407e-02 2.825e+00 
*LOADS
*RC U129:A1 1.566e-02
*RC U74:B 2.408e-02
*END

*R_NET add1_i\[8\] 5.649e+00
*DRIVER add1_i\[8\]
*CELL NULL
*C2_R1_C1 2.825e+00 1.407e-02 2.825e+00 
*LOADS
*RC U126:A1 1.566e-02
*RC U75:B 2.408e-02
*END

*R_NET add1_i\[7\] 5.649e+00
*DRIVER add1_i\[7\]
*CELL NULL
*C2_R1_C1 2.825e+00 1.407e-02 2.825e+00 
*LOADS
*RC U123:A1 1.566e-02
*RC U76:B 2.408e-02
*END

*R_NET add1_i\[6\] 5.649e+00
*DRIVER add1_i\[6\]
*CELL NULL
*C2_R1_C1 2.825e+00 1.407e-02 2.825e+00 
*LOADS
*RC U120:A1 1.566e-02
*RC U77:B 2.408e-02
*END

*R_NET add1_i\[5\] 5.649e+00
*DRIVER add1_i\[5\]
*CELL NULL
*C2_R1_C1 2.825e+00 1.407e-02 2.825e+00 
*LOADS
*RC U117:A1 1.566e-02
*RC U78:B 2.408e-02
*END

*R_NET add1_i\[4\] 5.649e+00
*DRIVER add1_i\[4\]
*CELL NULL
*C2_R1_C1 2.825e+00 1.407e-02 2.825e+00 
*LOADS
*RC U132:A1 1.566e-02
*RC U79:B 2.408e-02
*END

*R_NET add1_i\[3\] 5.347e+00
*DRIVER add1_i\[3\]
*CELL NULL
*C2_R1_C1 2.674e+00 1.407e-02 2.674e+00 
*LOADS
*RC U92:A1 1.566e-02
*RC U82:A 2.195e-02
*END

*R_NET add1_i\[2\] 5.347e+00
*DRIVER add1_i\[2\]
*CELL NULL
*C2_R1_C1 2.674e+00 1.407e-02 2.674e+00 
*LOADS
*RC U99:A1 1.566e-02
*RC U81:A 2.195e-02
*END

*R_NET add1_i\[1\] 5.347e+00
*DRIVER add1_i\[1\]
*CELL NULL
*C2_R1_C1 2.674e+00 1.407e-02 2.674e+00 
*LOADS
*RC U95:A1 1.566e-02
*RC U80:A 2.195e-02
*END

*R_NET add1_i\[0\] 5.461e+00
*DRIVER add1_i\[0\]
*CELL NULL
*C2_R1_C1 2.730e+00 1.407e-02 2.730e+00 
*LOADS
*RC U88:A2 1.628e-02
*RC U90:A 2.213e-02
*END

*R_NET add2_i\[15\] 5.347e+00
*DRIVER add2_i\[15\]
*CELL NULL
*C2_R1_C1 2.674e+00 1.407e-02 2.674e+00 
*LOADS
*RC U136:A1 1.566e-02
*RC U62:A 2.195e-02
*END

*R_NET add2_i\[14\] 5.347e+00
*DRIVER add2_i\[14\]
*CELL NULL
*C2_R1_C1 2.674e+00 1.407e-02 2.674e+00 
*LOADS
*RC U115:A1 1.566e-02
*RC U64:A 2.195e-02
*END

*R_NET add2_i\[13\] 5.347e+00
*DRIVER add2_i\[13\]
*CELL NULL
*C2_R1_C1 2.674e+00 1.407e-02 2.674e+00 
*LOADS
*RC U112:A1 1.566e-02
*RC U66:A 2.195e-02
*END

*R_NET add2_i\[12\] 5.347e+00
*DRIVER add2_i\[12\]
*CELL NULL
*C2_R1_C1 2.674e+00 1.407e-02 2.674e+00 
*LOADS
*RC U109:A1 1.566e-02
*RC U68:A 2.195e-02
*END

*R_NET add2_i\[11\] 5.347e+00
*DRIVER add2_i\[11\]
*CELL NULL
*C2_R1_C1 2.674e+00 1.407e-02 2.674e+00 
*LOADS
*RC U106:A1 1.566e-02
*RC U70:A 2.195e-02
*END

*R_NET add2_i\[10\] 5.347e+00
*DRIVER add2_i\[10\]
*CELL NULL
*C2_R1_C1 2.674e+00 1.407e-02 2.674e+00 
*LOADS
*RC U103:A1 1.566e-02
*RC U72:A 2.195e-02
*END

*R_NET add2_i\[9\] 5.347e+00
*DRIVER add2_i\[9\]
*CELL NULL
*C2_R1_C1 2.674e+00 1.407e-02 2.674e+00 
*LOADS
*RC U130:A1 1.566e-02
*RC U56:A 2.195e-02
*END

*R_NET add2_i\[8\] 5.347e+00
*DRIVER add2_i\[8\]
*CELL NULL
*C2_R1_C1 2.674e+00 1.407e-02 2.674e+00 
*LOADS
*RC U127:A1 1.566e-02
*RC U57:A 2.195e-02
*END

*R_NET add2_i\[7\] 5.347e+00
*DRIVER add2_i\[7\]
*CELL NULL
*C2_R1_C1 2.674e+00 1.407e-02 2.674e+00 
*LOADS
*RC U124:A1 1.566e-02
*RC U58:A 2.195e-02
*END

*R_NET add2_i\[6\] 5.347e+00
*DRIVER add2_i\[6\]
*CELL NULL
*C2_R1_C1 2.674e+00 1.407e-02 2.674e+00 
*LOADS
*RC U121:A1 1.566e-02
*RC U59:A 2.195e-02
*END

*R_NET add2_i\[5\] 5.649e+00
*DRIVER add2_i\[5\]
*CELL NULL
*C2_R1_C1 2.825e+00 1.407e-02 2.825e+00 
*LOADS
*RC U118:A1 1.566e-02
*RC U60:B 2.408e-02
*END

*R_NET add2_i\[4\] 5.649e+00
*DRIVER add2_i\[4\]
*CELL NULL
*C2_R1_C1 2.825e+00 1.407e-02 2.825e+00 
*LOADS
*RC U133:A1 1.566e-02
*RC U61:B 2.408e-02
*END

*R_NET add2_i\[3\] 5.777e+00
*DRIVER add2_i\[3\]
*CELL NULL
*C2_R1_C1 2.888e+00 1.407e-02 2.888e+00 
*LOADS
*RC U92:A2 1.656e-02
*RC U82:B 2.408e-02
*END

*R_NET add2_i\[2\] 5.777e+00
*DRIVER add2_i\[2\]
*CELL NULL
*C2_R1_C1 2.888e+00 1.407e-02 2.888e+00 
*LOADS
*RC U99:A2 1.656e-02
*RC U81:B 2.408e-02
*END

*R_NET add2_i\[1\] 5.777e+00
*DRIVER add2_i\[1\]
*CELL NULL
*C2_R1_C1 2.888e+00 1.407e-02 2.888e+00 
*LOADS
*RC U95:A2 1.656e-02
*RC U80:B 2.408e-02
*END

*R_NET add2_i\[0\] 3.224e+00
*DRIVER add2_i\[0\]
*CELL NULL
*C2_R1_C1 1.612e+00 6.236e-03 1.612e+00 
*LOADS
*RC U90:B 2.010e-02
*END

*R_NET result_o\[16\] 4.097e-01
*DRIVER U134:ZN
*CELL NAND2_X1
*C2_R1_C1 2.049e-01 6.236e-03 2.049e-01 
*LOADS
*RC result_o\[16\] 2.555e-03
*END

*R_NET result_o\[15\] 4.097e-01
*DRIVER U62:Z
*CELL XOR2_X1
*C2_R1_C1 2.049e-01 6.236e-03 2.049e-01 
*LOADS
*RC result_o\[15\] 2.555e-03
*END

*R_NET result_o\[14\] 4.097e-01
*DRIVER U64:Z
*CELL XOR2_X1
*C2_R1_C1 2.049e-01 6.236e-03 2.049e-01 
*LOADS
*RC result_o\[14\] 2.555e-03
*END

*R_NET result_o\[13\] 4.097e-01
*DRIVER U66:Z
*CELL XOR2_X1
*C2_R1_C1 2.049e-01 6.236e-03 2.049e-01 
*LOADS
*RC result_o\[13\] 2.555e-03
*END

*R_NET result_o\[12\] 4.097e-01
*DRIVER U68:Z
*CELL XOR2_X1
*C2_R1_C1 2.049e-01 6.236e-03 2.049e-01 
*LOADS
*RC result_o\[12\] 2.555e-03
*END

*R_NET result_o\[11\] 4.097e-01
*DRIVER U70:Z
*CELL XOR2_X1
*C2_R1_C1 2.049e-01 6.236e-03 2.049e-01 
*LOADS
*RC result_o\[11\] 2.555e-03
*END

*R_NET result_o\[10\] 4.097e-01
*DRIVER U72:Z
*CELL XOR2_X1
*C2_R1_C1 2.049e-01 6.236e-03 2.049e-01 
*LOADS
*RC result_o\[10\] 2.555e-03
*END

*R_NET result_o\[9\] 4.097e-01
*DRIVER U56:Z
*CELL XOR2_X1
*C2_R1_C1 2.049e-01 6.236e-03 2.049e-01 
*LOADS
*RC result_o\[9\] 2.555e-03
*END

*R_NET result_o\[8\] 4.097e-01
*DRIVER U57:Z
*CELL XOR2_X1
*C2_R1_C1 2.049e-01 6.236e-03 2.049e-01 
*LOADS
*RC result_o\[8\] 2.555e-03
*END

*R_NET result_o\[7\] 4.097e-01
*DRIVER U58:Z
*CELL XOR2_X1
*C2_R1_C1 2.049e-01 6.236e-03 2.049e-01 
*LOADS
*RC result_o\[7\] 2.555e-03
*END

*R_NET result_o\[6\] 4.097e-01
*DRIVER U59:Z
*CELL XOR2_X1
*C2_R1_C1 2.049e-01 6.236e-03 2.049e-01 
*LOADS
*RC result_o\[6\] 2.555e-03
*END

*R_NET result_o\[5\] 4.097e-01
*DRIVER U60:Z
*CELL XOR2_X1
*C2_R1_C1 2.049e-01 6.236e-03 2.049e-01 
*LOADS
*RC result_o\[5\] 2.555e-03
*END

*R_NET result_o\[4\] 4.097e-01
*DRIVER U61:Z
*CELL XOR2_X1
*C2_R1_C1 2.049e-01 6.236e-03 2.049e-01 
*LOADS
*RC result_o\[4\] 2.555e-03
*END

*R_NET result_o\[3\] 4.097e-01
*DRIVER U84:ZN
*CELL NOR2_X1
*C2_R1_C1 2.049e-01 6.236e-03 2.049e-01 
*LOADS
*RC result_o\[3\] 2.555e-03
*END

*R_NET result_o\[2\] 4.097e-01
*DRIVER U86:ZN
*CELL NOR2_X1
*C2_R1_C1 2.049e-01 6.236e-03 2.049e-01 
*LOADS
*RC result_o\[2\] 2.555e-03
*END

*R_NET result_o\[1\] 4.097e-01
*DRIVER U83:ZN
*CELL NOR2_X1
*C2_R1_C1 2.049e-01 6.236e-03 2.049e-01 
*LOADS
*RC result_o\[1\] 2.555e-03
*END

*R_NET n47 2.413e+00
*DRIVER U85:ZN
*CELL INV_X1
*C2_R1_C1 1.206e+00 6.236e-03 1.206e+00 
*LOADS
*RC U84:A1 1.504e-02
*END

*R_NET n48 2.413e+00
*DRIVER U87:ZN
*CELL INV_X1
*C2_R1_C1 1.206e+00 6.236e-03 1.206e+00 
*LOADS
*RC U86:A1 1.504e-02
*END

*R_NET n49 2.314e+00
*DRIVER U97:ZN
*CELL INV_X1
*C2_R1_C1 1.157e+00 6.236e-03 1.157e+00 
*LOADS
*RC U96:A2 1.443e-02
*END

*R_NET n50 2.413e+00
*DRIVER U89:ZN
*CELL INV_X1
*C2_R1_C1 1.206e+00 6.236e-03 1.206e+00 
*LOADS
*RC U88:A1 1.504e-02
*END

*R_NET n51 5.777e+00
*DRIVER U74:Z
*CELL XOR2_X1
*C2_R1_C1 2.888e+00 1.407e-02 2.888e+00 
*LOADS
*RC U130:A2 1.656e-02
*RC U56:B 2.408e-02
*END

*R_NET n52 5.777e+00
*DRIVER U75:Z
*CELL XOR2_X1
*C2_R1_C1 2.888e+00 1.407e-02 2.888e+00 
*LOADS
*RC U127:A2 1.656e-02
*RC U57:B 2.408e-02
*END

*R_NET n53 5.777e+00
*DRIVER U76:Z
*CELL XOR2_X1
*C2_R1_C1 2.888e+00 1.407e-02 2.888e+00 
*LOADS
*RC U124:A2 1.656e-02
*RC U58:B 2.408e-02
*END

*R_NET n54 5.777e+00
*DRIVER U77:Z
*CELL XOR2_X1
*C2_R1_C1 2.888e+00 1.407e-02 2.888e+00 
*LOADS
*RC U121:A2 1.656e-02
*RC U59:B 2.408e-02
*END

*R_NET n55 5.475e+00
*DRIVER U78:Z
*CELL XOR2_X1
*C2_R1_C1 2.737e+00 1.407e-02 2.737e+00 
*LOADS
*RC U118:A2 1.656e-02
*RC U60:A 2.195e-02
*END

*R_NET n56 5.475e+00
*DRIVER U79:Z
*CELL XOR2_X1
*C2_R1_C1 2.737e+00 1.407e-02 2.737e+00 
*LOADS
*RC U133:A2 1.656e-02
*RC U61:A 2.195e-02
*END

*R_NET n57 4.541e+00
*DRIVER U82:Z
*CELL XOR2_X1
*C2_R1_C1 2.271e+00 1.407e-02 2.271e+00 
*LOADS
*RC U84:A2 1.628e-02
*RC U93:A1 1.566e-02
*END

*R_NET n58 4.751e+00
*DRIVER U98:ZN
*CELL NAND2_X1
*C2_R1_C1 2.375e+00 1.407e-02 2.375e+00 
*LOADS
*RC U85:A 1.686e-02
*RC U93:A2 1.656e-02
*END

*R_NET n59 4.541e+00
*DRIVER U81:Z
*CELL XOR2_X1
*C2_R1_C1 2.271e+00 1.407e-02 2.271e+00 
*LOADS
*RC U86:A2 1.628e-02
*RC U100:A1 1.566e-02
*END

*R_NET n60 4.751e+00
*DRIVER U94:ZN
*CELL NAND2_X1
*C2_R1_C1 2.375e+00 1.407e-02 2.375e+00 
*LOADS
*RC U87:A 1.686e-02
*RC U100:A2 1.656e-02
*END

*R_NET n61 4.849e+00
*DRIVER U88:ZN
*CELL NOR2_X1
*C2_R1_C1 2.425e+00 1.407e-02 2.425e+00 
*LOADS
*RC U83:A1 1.725e-02
*RC U97:A 1.686e-02
*END

*R_NET n62 4.541e+00
*DRIVER U80:Z
*CELL XOR2_X1
*C2_R1_C1 2.271e+00 1.407e-02 2.271e+00 
*LOADS
*RC U83:A2 1.628e-02
*RC U96:A1 1.566e-02
*END

*R_NET n63 2.187e+00
*DRIVER U135:ZN
*CELL NAND2_X1
*C2_R1_C1 1.093e+00 6.236e-03 1.093e+00 
*LOADS
*RC U134:A1 1.364e-02
*END

*R_NET n64 2.314e+00
*DRIVER U136:ZN
*CELL NAND2_X1
*C2_R1_C1 1.157e+00 6.236e-03 1.157e+00 
*LOADS
*RC U134:A2 1.443e-02
*END

*R_NET n65 5.777e+00
*DRIVER U63:Z
*CELL XOR2_X1
*C2_R1_C1 2.888e+00 1.407e-02 2.888e+00 
*LOADS
*RC U136:A2 1.656e-02
*RC U62:B 2.408e-02
*END

*R_NET n66 5.475e+00
*DRIVER U113:ZN
*CELL NAND2_X1
*C2_R1_C1 2.737e+00 1.407e-02 2.737e+00 
*LOADS
*RC U135:A2 1.656e-02
*RC U63:A 2.195e-02
*END

*R_NET n67 2.187e+00
*DRIVER U114:ZN
*CELL NAND2_X1
*C2_R1_C1 1.093e+00 6.236e-03 1.093e+00 
*LOADS
*RC U113:A1 1.364e-02
*END

*R_NET n68 2.314e+00
*DRIVER U115:ZN
*CELL NAND2_X1
*C2_R1_C1 1.157e+00 6.236e-03 1.157e+00 
*LOADS
*RC U113:A2 1.443e-02
*END

*R_NET n69 5.777e+00
*DRIVER U65:Z
*CELL XOR2_X1
*C2_R1_C1 2.888e+00 1.407e-02 2.888e+00 
*LOADS
*RC U115:A2 1.656e-02
*RC U64:B 2.408e-02
*END

*R_NET n70 5.475e+00
*DRIVER U110:ZN
*CELL NAND2_X1
*C2_R1_C1 2.737e+00 1.407e-02 2.737e+00 
*LOADS
*RC U114:A2 1.656e-02
*RC U65:A 2.195e-02
*END

*R_NET n71 2.187e+00
*DRIVER U111:ZN
*CELL NAND2_X1
*C2_R1_C1 1.093e+00 6.236e-03 1.093e+00 
*LOADS
*RC U110:A1 1.364e-02
*END

*R_NET n72 2.314e+00
*DRIVER U112:ZN
*CELL NAND2_X1
*C2_R1_C1 1.157e+00 6.236e-03 1.157e+00 
*LOADS
*RC U110:A2 1.443e-02
*END

*R_NET n73 5.777e+00
*DRIVER U67:Z
*CELL XOR2_X1
*C2_R1_C1 2.888e+00 1.407e-02 2.888e+00 
*LOADS
*RC U112:A2 1.656e-02
*RC U66:B 2.408e-02
*END

*R_NET n74 5.475e+00
*DRIVER U107:ZN
*CELL NAND2_X1
*C2_R1_C1 2.737e+00 1.407e-02 2.737e+00 
*LOADS
*RC U111:A2 1.656e-02
*RC U67:A 2.195e-02
*END

*R_NET n75 2.187e+00
*DRIVER U108:ZN
*CELL NAND2_X1
*C2_R1_C1 1.093e+00 6.236e-03 1.093e+00 
*LOADS
*RC U107:A1 1.364e-02
*END

*R_NET n76 2.314e+00
*DRIVER U109:ZN
*CELL NAND2_X1
*C2_R1_C1 1.157e+00 6.236e-03 1.157e+00 
*LOADS
*RC U107:A2 1.443e-02
*END

*R_NET n77 5.777e+00
*DRIVER U69:Z
*CELL XOR2_X1
*C2_R1_C1 2.888e+00 1.407e-02 2.888e+00 
*LOADS
*RC U109:A2 1.656e-02
*RC U68:B 2.408e-02
*END

*R_NET n78 5.475e+00
*DRIVER U104:ZN
*CELL NAND2_X1
*C2_R1_C1 2.737e+00 1.407e-02 2.737e+00 
*LOADS
*RC U108:A2 1.656e-02
*RC U69:A 2.195e-02
*END

*R_NET n79 2.187e+00
*DRIVER U105:ZN
*CELL NAND2_X1
*C2_R1_C1 1.093e+00 6.236e-03 1.093e+00 
*LOADS
*RC U104:A1 1.364e-02
*END

*R_NET n80 2.314e+00
*DRIVER U106:ZN
*CELL NAND2_X1
*C2_R1_C1 1.157e+00 6.236e-03 1.157e+00 
*LOADS
*RC U104:A2 1.443e-02
*END

*R_NET n81 5.777e+00
*DRIVER U71:Z
*CELL XOR2_X1
*C2_R1_C1 2.888e+00 1.407e-02 2.888e+00 
*LOADS
*RC U106:A2 1.656e-02
*RC U70:B 2.408e-02
*END

*R_NET n82 5.475e+00
*DRIVER U101:ZN
*CELL NAND2_X1
*C2_R1_C1 2.737e+00 1.407e-02 2.737e+00 
*LOADS
*RC U105:A2 1.656e-02
*RC U71:A 2.195e-02
*END

*R_NET n83 2.187e+00
*DRIVER U102:ZN
*CELL NAND2_X1
*C2_R1_C1 1.093e+00 6.236e-03 1.093e+00 
*LOADS
*RC U101:A1 1.364e-02
*END

*R_NET n84 2.314e+00
*DRIVER U103:ZN
*CELL NAND2_X1
*C2_R1_C1 1.157e+00 6.236e-03 1.157e+00 
*LOADS
*RC U101:A2 1.443e-02
*END

*R_NET n85 5.777e+00
*DRIVER U73:Z
*CELL XOR2_X1
*C2_R1_C1 2.888e+00 1.407e-02 2.888e+00 
*LOADS
*RC U103:A2 1.656e-02
*RC U72:B 2.408e-02
*END

*R_NET n86 5.475e+00
*DRIVER U128:ZN
*CELL NAND2_X1
*C2_R1_C1 2.737e+00 1.407e-02 2.737e+00 
*LOADS
*RC U102:A2 1.656e-02
*RC U73:A 2.195e-02
*END

*R_NET n87 2.187e+00
*DRIVER U129:ZN
*CELL NAND2_X1
*C2_R1_C1 1.093e+00 6.236e-03 1.093e+00 
*LOADS
*RC U128:A1 1.364e-02
*END

*R_NET n88 2.314e+00
*DRIVER U130:ZN
*CELL NAND2_X1
*C2_R1_C1 1.157e+00 6.236e-03 1.157e+00 
*LOADS
*RC U128:A2 1.443e-02
*END

*R_NET n89 5.475e+00
*DRIVER U125:ZN
*CELL NAND2_X1
*C2_R1_C1 2.737e+00 1.407e-02 2.737e+00 
*LOADS
*RC U129:A2 1.656e-02
*RC U74:A 2.195e-02
*END

*R_NET n90 2.187e+00
*DRIVER U126:ZN
*CELL NAND2_X1
*C2_R1_C1 1.093e+00 6.236e-03 1.093e+00 
*LOADS
*RC U125:A1 1.364e-02
*END

*R_NET n91 2.314e+00
*DRIVER U127:ZN
*CELL NAND2_X1
*C2_R1_C1 1.157e+00 6.236e-03 1.157e+00 
*LOADS
*RC U125:A2 1.443e-02
*END

*R_NET n92 5.475e+00
*DRIVER U122:ZN
*CELL NAND2_X1
*C2_R1_C1 2.737e+00 1.407e-02 2.737e+00 
*LOADS
*RC U126:A2 1.656e-02
*RC U75:A 2.195e-02
*END

*R_NET n93 2.187e+00
*DRIVER U123:ZN
*CELL NAND2_X1
*C2_R1_C1 1.093e+00 6.236e-03 1.093e+00 
*LOADS
*RC U122:A1 1.364e-02
*END

*R_NET n94 2.314e+00
*DRIVER U124:ZN
*CELL NAND2_X1
*C2_R1_C1 1.157e+00 6.236e-03 1.157e+00 
*LOADS
*RC U122:A2 1.443e-02
*END

*R_NET n95 5.475e+00
*DRIVER U119:ZN
*CELL NAND2_X1
*C2_R1_C1 2.737e+00 1.407e-02 2.737e+00 
*LOADS
*RC U123:A2 1.656e-02
*RC U76:A 2.195e-02
*END

*R_NET n96 2.187e+00
*DRIVER U120:ZN
*CELL NAND2_X1
*C2_R1_C1 1.093e+00 6.236e-03 1.093e+00 
*LOADS
*RC U119:A1 1.364e-02
*END

*R_NET n97 2.314e+00
*DRIVER U121:ZN
*CELL NAND2_X1
*C2_R1_C1 1.157e+00 6.236e-03 1.157e+00 
*LOADS
*RC U119:A2 1.443e-02
*END

*R_NET n98 5.475e+00
*DRIVER U116:ZN
*CELL NAND2_X1
*C2_R1_C1 2.737e+00 1.407e-02 2.737e+00 
*LOADS
*RC U120:A2 1.656e-02
*RC U77:A 2.195e-02
*END

*R_NET n99 2.187e+00
*DRIVER U117:ZN
*CELL NAND2_X1
*C2_R1_C1 1.093e+00 6.236e-03 1.093e+00 
*LOADS
*RC U116:A1 1.364e-02
*END

*R_NET n100 2.314e+00
*DRIVER U118:ZN
*CELL NAND2_X1
*C2_R1_C1 1.157e+00 6.236e-03 1.157e+00 
*LOADS
*RC U116:A2 1.443e-02
*END

*R_NET n101 5.475e+00
*DRIVER U131:ZN
*CELL NAND2_X1
*C2_R1_C1 2.737e+00 1.407e-02 2.737e+00 
*LOADS
*RC U117:A2 1.656e-02
*RC U78:A 2.195e-02
*END

*R_NET n102 2.187e+00
*DRIVER U132:ZN
*CELL NAND2_X1
*C2_R1_C1 1.093e+00 6.236e-03 1.093e+00 
*LOADS
*RC U131:A1 1.364e-02
*END

*R_NET n103 2.314e+00
*DRIVER U133:ZN
*CELL NAND2_X1
*C2_R1_C1 1.157e+00 6.236e-03 1.157e+00 
*LOADS
*RC U131:A2 1.443e-02
*END

*R_NET n104 5.475e+00
*DRIVER U91:ZN
*CELL NAND2_X1
*C2_R1_C1 2.737e+00 1.407e-02 2.737e+00 
*LOADS
*RC U132:A2 1.656e-02
*RC U79:A 2.195e-02
*END

*R_NET n105 2.187e+00
*DRIVER U92:ZN
*CELL NAND2_X1
*C2_R1_C1 1.093e+00 6.236e-03 1.093e+00 
*LOADS
*RC U91:A1 1.364e-02
*END

*R_NET n106 2.314e+00
*DRIVER U93:ZN
*CELL NAND2_X1
*C2_R1_C1 1.157e+00 6.236e-03 1.157e+00 
*LOADS
*RC U91:A2 1.443e-02
*END

*R_NET n107 2.187e+00
*DRIVER U99:ZN
*CELL NAND2_X1
*C2_R1_C1 1.093e+00 6.236e-03 1.093e+00 
*LOADS
*RC U98:A1 1.364e-02
*END

*R_NET n108 2.314e+00
*DRIVER U100:ZN
*CELL NAND2_X1
*C2_R1_C1 1.157e+00 6.236e-03 1.157e+00 
*LOADS
*RC U98:A2 1.443e-02
*END

*R_NET n109 2.187e+00
*DRIVER U95:ZN
*CELL NAND2_X1
*C2_R1_C1 1.093e+00 6.236e-03 1.093e+00 
*LOADS
*RC U94:A1 1.364e-02
*END

*R_NET n110 2.314e+00
*DRIVER U96:ZN
*CELL NAND2_X1
*C2_R1_C1 1.157e+00 6.236e-03 1.157e+00 
*LOADS
*RC U94:A2 1.443e-02
*END

*R_NET result_o\[0\] 2.846e+00
*DRIVER U90:ZN
*CELL XNOR2_X1
*C2_R1_C1 1.423e+00 1.407e-02 1.423e+00 
*LOADS
*RC U89:A 1.686e-02
*RC result_o\[0\] 3.162e-03
*END
