*SPEF "IEEE 1481-1999"
*DESIGN "equal_segmentation_adder16"
*DATE "Tue Aug 18 10:59:49 2020"
*VENDOR "SYNOPSYS INC"
*PROGRAM "Synopsys Design Compiler cmos"
*VERSION "N-2017.09-SP3"
*DESIGN_FLOW "SYNTHESIS"
*DIVIDER /
*DELIMITER :
*BUS_DELIMITER []
*T_UNIT 1.0 NS
*C_UNIT 0.0010 PF
*R_UNIT 1000.0 KOHM
*L_UNIT 1.0 HENRY

*PORTS

add1_i\[15\] I *L 0.000e+00 *S 0.000e+00 0.000e+00 
add1_i\[14\] I *L 0.000e+00 *S 0.000e+00 0.000e+00 
add1_i\[13\] I *L 0.000e+00 *S 0.000e+00 0.000e+00 
add1_i\[12\] I *L 0.000e+00 *S 0.000e+00 0.000e+00 
add1_i\[11\] I *L 0.000e+00 *S 0.000e+00 0.000e+00 
add1_i\[10\] I *L 0.000e+00 *S 0.000e+00 0.000e+00 
add1_i\[9\] I *L 0.000e+00 *S 0.000e+00 0.000e+00 
add1_i\[8\] I *L 0.000e+00 *S 0.000e+00 0.000e+00 
add1_i\[7\] I *L 0.000e+00 *S 0.000e+00 0.000e+00 
add1_i\[6\] I *L 0.000e+00 *S 0.000e+00 0.000e+00 
add1_i\[5\] I *L 0.000e+00 *S 0.000e+00 0.000e+00 
add1_i\[4\] I *L 0.000e+00 *S 0.000e+00 0.000e+00 
add1_i\[3\] I *L 0.000e+00 *S 0.000e+00 0.000e+00 
add1_i\[2\] I *L 0.000e+00 *S 0.000e+00 0.000e+00 
add1_i\[1\] I *L 0.000e+00 *S 0.000e+00 0.000e+00 
add1_i\[0\] I *L 0.000e+00 *S 0.000e+00 0.000e+00 
add2_i\[15\] I *L 0.000e+00 *S 0.000e+00 0.000e+00 
add2_i\[14\] I *L 0.000e+00 *S 0.000e+00 0.000e+00 
add2_i\[13\] I *L 0.000e+00 *S 0.000e+00 0.000e+00 
add2_i\[12\] I *L 0.000e+00 *S 0.000e+00 0.000e+00 
add2_i\[11\] I *L 0.000e+00 *S 0.000e+00 0.000e+00 
add2_i\[10\] I *L 0.000e+00 *S 0.000e+00 0.000e+00 
add2_i\[9\] I *L 0.000e+00 *S 0.000e+00 0.000e+00 
add2_i\[8\] I *L 0.000e+00 *S 0.000e+00 0.000e+00 
add2_i\[7\] I *L 0.000e+00 *S 0.000e+00 0.000e+00 
add2_i\[6\] I *L 0.000e+00 *S 0.000e+00 0.000e+00 
add2_i\[5\] I *L 0.000e+00 *S 0.000e+00 0.000e+00 
add2_i\[4\] I *L 0.000e+00 *S 0.000e+00 0.000e+00 
add2_i\[3\] I *L 0.000e+00 *S 0.000e+00 0.000e+00 
add2_i\[2\] I *L 0.000e+00 *S 0.000e+00 0.000e+00 
add2_i\[1\] I *L 0.000e+00 *S 0.000e+00 0.000e+00 
add2_i\[0\] I *L 0.000e+00 *S 0.000e+00 0.000e+00 
result_o\[16\] O *L 1.000e-01 *S 1.851e-03 1.752e-03 
result_o\[15\] O *L 1.000e-01 *S 2.769e-03 1.850e-03 
result_o\[14\] O *L 1.000e-01 *S 2.769e-03 1.850e-03 
result_o\[13\] O *L 1.000e-01 *S 2.769e-03 1.850e-03 
result_o\[12\] O *L 1.000e-01 *S 2.769e-03 1.850e-03 
result_o\[11\] O *L 1.000e-01 *S 2.769e-03 1.850e-03 
result_o\[10\] O *L 1.000e-01 *S 2.769e-03 1.850e-03 
result_o\[9\] O *L 1.000e-01 *S 2.769e-03 1.850e-03 
result_o\[8\] O *L 1.000e-01 *S 2.769e-03 1.850e-03 
result_o\[7\] O *L 1.000e-01 *S 2.769e-03 1.850e-03 
result_o\[6\] O *L 1.000e-01 *S 2.769e-03 1.850e-03 
result_o\[5\] O *L 1.000e-01 *S 2.769e-03 1.850e-03 
result_o\[4\] O *L 1.000e-01 *S 2.769e-03 1.850e-03 
result_o\[3\] O *L 1.000e-01 *S 2.769e-03 1.850e-03 
result_o\[2\] O *L 1.000e-01 *S 2.769e-03 1.850e-03 
result_o\[1\] O *L 1.000e-01 *S 2.769e-03 1.850e-03 
result_o\[0\] O *L 1.000e-01 *S 2.769e-03 1.850e-03 

*R_NET add1_i\[15\] 5.649e+00
*DRIVER add1_i\[15\]
*CELL NULL
*C2_R1_C1 2.825e+00 1.407e-02 2.825e+00 
*LOADS
*RC U93:A1 1.566e-02
*RC U50:B 2.408e-02
*END

*R_NET add1_i\[14\] 5.649e+00
*DRIVER add1_i\[14\]
*CELL NULL
*C2_R1_C1 2.825e+00 1.407e-02 2.825e+00 
*LOADS
*RC U75:A1 1.566e-02
*RC U52:B 2.408e-02
*END

*R_NET add1_i\[13\] 5.449e+00
*DRIVER add1_i\[13\]
*CELL NULL
*C2_R1_C1 2.725e+00 1.407e-02 2.725e+00 
*LOADS
*RC U60:B 2.296e-02
*RC U81:A1 1.538e-02
*END

*R_NET add1_i\[12\] 8.118e+00
*DRIVER add1_i\[12\]
*CELL NULL
*C2_R1_C1 4.059e+00 2.308e-02 4.059e+00 
*LOADS
*RC U61:A2 1.836e-02
*RC U81:A2 1.751e-02
*RC U54:B 2.659e-02
*END

*R_NET add1_i\[11\] 3.383e+00
*DRIVER add1_i\[11\]
*CELL NULL
*C2_R1_C1 1.692e+00 6.236e-03 1.692e+00 
*LOADS
*RC U56:B 2.110e-02
*END

*R_NET add1_i\[10\] 5.649e+00
*DRIVER add1_i\[10\]
*CELL NULL
*C2_R1_C1 2.825e+00 1.407e-02 2.825e+00 
*LOADS
*RC U73:A1 1.566e-02
*RC U58:B 2.408e-02
*END

*R_NET add1_i\[9\] 5.585e+00
*DRIVER add1_i\[9\]
*CELL NULL
*C2_R1_C1 2.793e+00 1.407e-02 2.793e+00 
*LOADS
*RC U66:B 2.296e-02
*RC U90:A3 1.641e-02
*END

*R_NET add1_i\[8\] 8.118e+00
*DRIVER add1_i\[8\]
*CELL NULL
*C2_R1_C1 4.059e+00 2.308e-02 4.059e+00 
*LOADS
*RC U67:A2 1.836e-02
*RC U90:A2 1.751e-02
*RC U37:B 2.659e-02
*END

*R_NET add1_i\[7\] 3.383e+00
*DRIVER add1_i\[7\]
*CELL NULL
*C2_R1_C1 1.692e+00 6.236e-03 1.692e+00 
*LOADS
*RC U39:B 2.110e-02
*END

*R_NET add1_i\[6\] 5.649e+00
*DRIVER add1_i\[6\]
*CELL NULL
*C2_R1_C1 2.825e+00 1.407e-02 2.825e+00 
*LOADS
*RC U71:A1 1.566e-02
*RC U41:B 2.408e-02
*END

*R_NET add1_i\[5\] 5.449e+00
*DRIVER add1_i\[5\]
*CELL NULL
*C2_R1_C1 2.725e+00 1.407e-02 2.725e+00 
*LOADS
*RC U64:B 2.296e-02
*RC U87:A1 1.538e-02
*END

*R_NET add1_i\[4\] 8.118e+00
*DRIVER add1_i\[4\]
*CELL NULL
*C2_R1_C1 4.059e+00 2.308e-02 4.059e+00 
*LOADS
*RC U65:A2 1.836e-02
*RC U87:A2 1.751e-02
*RC U43:B 2.659e-02
*END

*R_NET add1_i\[3\] 3.383e+00
*DRIVER add1_i\[3\]
*CELL NULL
*C2_R1_C1 1.692e+00 6.236e-03 1.692e+00 
*LOADS
*RC U45:B 2.110e-02
*END

*R_NET add1_i\[2\] 5.649e+00
*DRIVER add1_i\[2\]
*CELL NULL
*C2_R1_C1 2.825e+00 1.407e-02 2.825e+00 
*LOADS
*RC U69:A1 1.566e-02
*RC U47:B 2.408e-02
*END

*R_NET add1_i\[1\] 5.449e+00
*DRIVER add1_i\[1\]
*CELL NULL
*C2_R1_C1 2.725e+00 1.407e-02 2.725e+00 
*LOADS
*RC U62:B 2.296e-02
*RC U84:A1 1.538e-02
*END

*R_NET add1_i\[0\] 8.118e+00
*DRIVER add1_i\[0\]
*CELL NULL
*C2_R1_C1 4.059e+00 2.308e-02 4.059e+00 
*LOADS
*RC U63:A2 1.836e-02
*RC U84:A2 1.751e-02
*RC U59:B 2.659e-02
*END

*R_NET add2_i\[15\] 5.347e+00
*DRIVER add2_i\[15\]
*CELL NULL
*C2_R1_C1 2.674e+00 1.407e-02 2.674e+00 
*LOADS
*RC U94:A1 1.566e-02
*RC U49:A 2.195e-02
*END

*R_NET add2_i\[14\] 5.347e+00
*DRIVER add2_i\[14\]
*CELL NULL
*C2_R1_C1 2.674e+00 1.407e-02 2.674e+00 
*LOADS
*RC U76:A1 1.566e-02
*RC U51:A 2.195e-02
*END

*R_NET add2_i\[13\] 5.347e+00
*DRIVER add2_i\[13\]
*CELL NULL
*C2_R1_C1 2.674e+00 1.407e-02 2.674e+00 
*LOADS
*RC U82:A1 1.566e-02
*RC U53:A 2.195e-02
*END

*R_NET add2_i\[12\] 7.779e+00
*DRIVER add2_i\[12\]
*CELL NULL
*C2_R1_C1 3.889e+00 2.308e-02 3.889e+00 
*LOADS
*RC U61:A1 1.738e-02
*RC U81:A3 1.820e-02
*RC U54:A 2.426e-02
*END

*R_NET add2_i\[11\] 3.081e+00
*DRIVER add2_i\[11\]
*CELL NULL
*C2_R1_C1 1.541e+00 6.236e-03 1.541e+00 
*LOADS
*RC U56:A 1.921e-02
*END

*R_NET add2_i\[10\] 5.347e+00
*DRIVER add2_i\[10\]
*CELL NULL
*C2_R1_C1 2.674e+00 1.407e-02 2.674e+00 
*LOADS
*RC U79:A1 1.566e-02
*RC U57:A 2.195e-02
*END

*R_NET add2_i\[9\] 5.347e+00
*DRIVER add2_i\[9\]
*CELL NULL
*C2_R1_C1 2.674e+00 1.407e-02 2.674e+00 
*LOADS
*RC U91:A1 1.566e-02
*RC U36:A 2.195e-02
*END

*R_NET add2_i\[8\] 7.622e+00
*DRIVER add2_i\[8\]
*CELL NULL
*C2_R1_C1 3.811e+00 2.308e-02 3.811e+00 
*LOADS
*RC U67:A1 1.738e-02
*RC U90:A1 1.707e-02
*RC U37:A 2.426e-02
*END

*R_NET add2_i\[7\] 3.081e+00
*DRIVER add2_i\[7\]
*CELL NULL
*C2_R1_C1 1.541e+00 6.236e-03 1.541e+00 
*LOADS
*RC U39:A 1.921e-02
*END

*R_NET add2_i\[6\] 5.347e+00
*DRIVER add2_i\[6\]
*CELL NULL
*C2_R1_C1 2.674e+00 1.407e-02 2.674e+00 
*LOADS
*RC U78:A1 1.566e-02
*RC U40:A 2.195e-02
*END

*R_NET add2_i\[5\] 5.347e+00
*DRIVER add2_i\[5\]
*CELL NULL
*C2_R1_C1 2.674e+00 1.407e-02 2.674e+00 
*LOADS
*RC U88:A1 1.566e-02
*RC U42:A 2.195e-02
*END

*R_NET add2_i\[4\] 7.779e+00
*DRIVER add2_i\[4\]
*CELL NULL
*C2_R1_C1 3.889e+00 2.308e-02 3.889e+00 
*LOADS
*RC U65:A1 1.738e-02
*RC U87:A3 1.820e-02
*RC U43:A 2.426e-02
*END

*R_NET add2_i\[3\] 3.081e+00
*DRIVER add2_i\[3\]
*CELL NULL
*C2_R1_C1 1.541e+00 6.236e-03 1.541e+00 
*LOADS
*RC U45:A 1.921e-02
*END

*R_NET add2_i\[2\] 5.347e+00
*DRIVER add2_i\[2\]
*CELL NULL
*C2_R1_C1 2.674e+00 1.407e-02 2.674e+00 
*LOADS
*RC U77:A1 1.566e-02
*RC U46:A 2.195e-02
*END

*R_NET add2_i\[1\] 5.347e+00
*DRIVER add2_i\[1\]
*CELL NULL
*C2_R1_C1 2.674e+00 1.407e-02 2.674e+00 
*LOADS
*RC U85:A1 1.566e-02
*RC U48:A 2.195e-02
*END

*R_NET add2_i\[0\] 7.779e+00
*DRIVER add2_i\[0\]
*CELL NULL
*C2_R1_C1 3.889e+00 2.308e-02 3.889e+00 
*LOADS
*RC U63:A1 1.738e-02
*RC U84:A3 1.820e-02
*RC U59:A 2.426e-02
*END

*R_NET result_o\[16\] 4.097e-01
*DRIVER U92:ZN
*CELL NAND2_X1
*C2_R1_C1 2.049e-01 6.236e-03 2.049e-01 
*LOADS
*RC result_o\[16\] 2.555e-03
*END

*R_NET result_o\[15\] 4.097e-01
*DRIVER U49:Z
*CELL XOR2_X1
*C2_R1_C1 2.049e-01 6.236e-03 2.049e-01 
*LOADS
*RC result_o\[15\] 2.555e-03
*END

*R_NET result_o\[14\] 4.097e-01
*DRIVER U51:Z
*CELL XOR2_X1
*C2_R1_C1 2.049e-01 6.236e-03 2.049e-01 
*LOADS
*RC result_o\[14\] 2.555e-03
*END

*R_NET result_o\[13\] 4.097e-01
*DRIVER U53:Z
*CELL XOR2_X1
*C2_R1_C1 2.049e-01 6.236e-03 2.049e-01 
*LOADS
*RC result_o\[13\] 2.555e-03
*END

*R_NET result_o\[12\] 4.097e-01
*DRIVER U54:Z
*CELL XOR2_X1
*C2_R1_C1 2.049e-01 6.236e-03 2.049e-01 
*LOADS
*RC result_o\[12\] 2.555e-03
*END

*R_NET result_o\[11\] 4.097e-01
*DRIVER U55:Z
*CELL XOR2_X1
*C2_R1_C1 2.049e-01 6.236e-03 2.049e-01 
*LOADS
*RC result_o\[11\] 2.555e-03
*END

*R_NET result_o\[10\] 4.097e-01
*DRIVER U57:Z
*CELL XOR2_X1
*C2_R1_C1 2.049e-01 6.236e-03 2.049e-01 
*LOADS
*RC result_o\[10\] 2.555e-03
*END

*R_NET result_o\[9\] 4.097e-01
*DRIVER U36:Z
*CELL XOR2_X1
*C2_R1_C1 2.049e-01 6.236e-03 2.049e-01 
*LOADS
*RC result_o\[9\] 2.555e-03
*END

*R_NET result_o\[8\] 4.097e-01
*DRIVER U37:Z
*CELL XOR2_X1
*C2_R1_C1 2.049e-01 6.236e-03 2.049e-01 
*LOADS
*RC result_o\[8\] 2.555e-03
*END

*R_NET result_o\[7\] 4.097e-01
*DRIVER U38:Z
*CELL XOR2_X1
*C2_R1_C1 2.049e-01 6.236e-03 2.049e-01 
*LOADS
*RC result_o\[7\] 2.555e-03
*END

*R_NET result_o\[6\] 4.097e-01
*DRIVER U40:Z
*CELL XOR2_X1
*C2_R1_C1 2.049e-01 6.236e-03 2.049e-01 
*LOADS
*RC result_o\[6\] 2.555e-03
*END

*R_NET result_o\[5\] 4.097e-01
*DRIVER U42:Z
*CELL XOR2_X1
*C2_R1_C1 2.049e-01 6.236e-03 2.049e-01 
*LOADS
*RC result_o\[5\] 2.555e-03
*END

*R_NET result_o\[4\] 4.097e-01
*DRIVER U43:Z
*CELL XOR2_X1
*C2_R1_C1 2.049e-01 6.236e-03 2.049e-01 
*LOADS
*RC result_o\[4\] 2.555e-03
*END

*R_NET result_o\[3\] 4.097e-01
*DRIVER U44:Z
*CELL XOR2_X1
*C2_R1_C1 2.049e-01 6.236e-03 2.049e-01 
*LOADS
*RC result_o\[3\] 2.555e-03
*END

*R_NET result_o\[2\] 4.097e-01
*DRIVER U46:Z
*CELL XOR2_X1
*C2_R1_C1 2.049e-01 6.236e-03 2.049e-01 
*LOADS
*RC result_o\[2\] 2.555e-03
*END

*R_NET result_o\[1\] 4.097e-01
*DRIVER U48:Z
*CELL XOR2_X1
*C2_R1_C1 2.049e-01 6.236e-03 2.049e-01 
*LOADS
*RC result_o\[1\] 2.555e-03
*END

*R_NET result_o\[0\] 4.097e-01
*DRIVER U59:Z
*CELL XOR2_X1
*C2_R1_C1 2.049e-01 6.236e-03 2.049e-01 
*LOADS
*RC result_o\[0\] 2.555e-03
*END

*R_NET n28 5.777e+00
*DRIVER U66:ZN
*CELL XNOR2_X1
*C2_R1_C1 2.888e+00 1.407e-02 2.888e+00 
*LOADS
*RC U91:A2 1.656e-02
*RC U36:B 2.408e-02
*END

*R_NET n29 3.081e+00
*DRIVER U70:ZN
*CELL NAND2_X1
*C2_R1_C1 1.541e+00 6.236e-03 1.541e+00 
*LOADS
*RC U38:A 1.921e-02
*END

*R_NET n30 3.383e+00
*DRIVER U39:Z
*CELL XOR2_X1
*C2_R1_C1 1.692e+00 6.236e-03 1.692e+00 
*LOADS
*RC U38:B 2.110e-02
*END

*R_NET n31 2.187e+00
*DRIVER U71:ZN
*CELL NAND2_X1
*C2_R1_C1 1.093e+00 6.236e-03 1.093e+00 
*LOADS
*RC U70:A1 1.364e-02
*END

*R_NET n32 2.314e+00
*DRIVER U78:ZN
*CELL NAND2_X1
*C2_R1_C1 1.157e+00 6.236e-03 1.157e+00 
*LOADS
*RC U70:A2 1.443e-02
*END

*R_NET n33 5.777e+00
*DRIVER U41:Z
*CELL XOR2_X1
*C2_R1_C1 2.888e+00 1.407e-02 2.888e+00 
*LOADS
*RC U78:A2 1.656e-02
*RC U40:B 2.408e-02
*END

*R_NET n34 5.475e+00
*DRIVER U86:ZN
*CELL NAND2_X1
*C2_R1_C1 2.737e+00 1.407e-02 2.737e+00 
*LOADS
*RC U71:A2 1.656e-02
*RC U41:A 2.195e-02
*END

*R_NET n35 2.187e+00
*DRIVER U88:ZN
*CELL NAND2_X1
*C2_R1_C1 1.093e+00 6.236e-03 1.093e+00 
*LOADS
*RC U86:A1 1.364e-02
*END

*R_NET n36 2.314e+00
*DRIVER U87:ZN
*CELL NAND3_X1
*C2_R1_C1 1.157e+00 6.236e-03 1.157e+00 
*LOADS
*RC U86:A2 1.443e-02
*END

*R_NET n37 5.777e+00
*DRIVER U64:ZN
*CELL XNOR2_X1
*C2_R1_C1 2.888e+00 1.407e-02 2.888e+00 
*LOADS
*RC U88:A2 1.656e-02
*RC U42:B 2.408e-02
*END

*R_NET n38 3.106e+00
*DRIVER U65:ZN
*CELL NAND2_X1
*C2_R1_C1 1.553e+00 6.236e-03 1.553e+00 
*LOADS
*RC U64:A 1.937e-02
*END

*R_NET n39 3.081e+00
*DRIVER U68:ZN
*CELL NAND2_X1
*C2_R1_C1 1.541e+00 6.236e-03 1.541e+00 
*LOADS
*RC U44:A 1.921e-02
*END

*R_NET n40 3.383e+00
*DRIVER U45:Z
*CELL XOR2_X1
*C2_R1_C1 1.692e+00 6.236e-03 1.692e+00 
*LOADS
*RC U44:B 2.110e-02
*END

*R_NET n41 2.187e+00
*DRIVER U69:ZN
*CELL NAND2_X1
*C2_R1_C1 1.093e+00 6.236e-03 1.093e+00 
*LOADS
*RC U68:A1 1.364e-02
*END

*R_NET n42 2.314e+00
*DRIVER U77:ZN
*CELL NAND2_X1
*C2_R1_C1 1.157e+00 6.236e-03 1.157e+00 
*LOADS
*RC U68:A2 1.443e-02
*END

*R_NET n43 5.777e+00
*DRIVER U47:Z
*CELL XOR2_X1
*C2_R1_C1 2.888e+00 1.407e-02 2.888e+00 
*LOADS
*RC U77:A2 1.656e-02
*RC U46:B 2.408e-02
*END

*R_NET n44 5.475e+00
*DRIVER U83:ZN
*CELL NAND2_X1
*C2_R1_C1 2.737e+00 1.407e-02 2.737e+00 
*LOADS
*RC U69:A2 1.656e-02
*RC U47:A 2.195e-02
*END

*R_NET n45 2.187e+00
*DRIVER U85:ZN
*CELL NAND2_X1
*C2_R1_C1 1.093e+00 6.236e-03 1.093e+00 
*LOADS
*RC U83:A1 1.364e-02
*END

*R_NET n46 2.314e+00
*DRIVER U84:ZN
*CELL NAND3_X1
*C2_R1_C1 1.157e+00 6.236e-03 1.157e+00 
*LOADS
*RC U83:A2 1.443e-02
*END

*R_NET n47 5.777e+00
*DRIVER U62:ZN
*CELL XNOR2_X1
*C2_R1_C1 2.888e+00 1.407e-02 2.888e+00 
*LOADS
*RC U85:A2 1.656e-02
*RC U48:B 2.408e-02
*END

*R_NET n48 3.106e+00
*DRIVER U63:ZN
*CELL NAND2_X1
*C2_R1_C1 1.553e+00 6.236e-03 1.553e+00 
*LOADS
*RC U62:A 1.937e-02
*END

*R_NET n49 2.187e+00
*DRIVER U93:ZN
*CELL NAND2_X1
*C2_R1_C1 1.093e+00 6.236e-03 1.093e+00 
*LOADS
*RC U92:A1 1.364e-02
*END

*R_NET n50 2.314e+00
*DRIVER U94:ZN
*CELL NAND2_X1
*C2_R1_C1 1.157e+00 6.236e-03 1.157e+00 
*LOADS
*RC U92:A2 1.443e-02
*END

*R_NET n51 5.777e+00
*DRIVER U50:Z
*CELL XOR2_X1
*C2_R1_C1 2.888e+00 1.407e-02 2.888e+00 
*LOADS
*RC U94:A2 1.656e-02
*RC U49:B 2.408e-02
*END

*R_NET n52 5.475e+00
*DRIVER U74:ZN
*CELL NAND2_X1
*C2_R1_C1 2.737e+00 1.407e-02 2.737e+00 
*LOADS
*RC U93:A2 1.656e-02
*RC U50:A 2.195e-02
*END

*R_NET n53 2.187e+00
*DRIVER U75:ZN
*CELL NAND2_X1
*C2_R1_C1 1.093e+00 6.236e-03 1.093e+00 
*LOADS
*RC U74:A1 1.364e-02
*END

*R_NET n54 2.314e+00
*DRIVER U76:ZN
*CELL NAND2_X1
*C2_R1_C1 1.157e+00 6.236e-03 1.157e+00 
*LOADS
*RC U74:A2 1.443e-02
*END

*R_NET n55 5.777e+00
*DRIVER U52:Z
*CELL XOR2_X1
*C2_R1_C1 2.888e+00 1.407e-02 2.888e+00 
*LOADS
*RC U76:A2 1.656e-02
*RC U51:B 2.408e-02
*END

*R_NET n56 5.475e+00
*DRIVER U80:ZN
*CELL NAND2_X1
*C2_R1_C1 2.737e+00 1.407e-02 2.737e+00 
*LOADS
*RC U75:A2 1.656e-02
*RC U52:A 2.195e-02
*END

*R_NET n57 2.187e+00
*DRIVER U82:ZN
*CELL NAND2_X1
*C2_R1_C1 1.093e+00 6.236e-03 1.093e+00 
*LOADS
*RC U80:A1 1.364e-02
*END

*R_NET n58 2.314e+00
*DRIVER U81:ZN
*CELL NAND3_X1
*C2_R1_C1 1.157e+00 6.236e-03 1.157e+00 
*LOADS
*RC U80:A2 1.443e-02
*END

*R_NET n59 5.777e+00
*DRIVER U60:ZN
*CELL XNOR2_X1
*C2_R1_C1 2.888e+00 1.407e-02 2.888e+00 
*LOADS
*RC U82:A2 1.656e-02
*RC U53:B 2.408e-02
*END

*R_NET n60 3.106e+00
*DRIVER U61:ZN
*CELL NAND2_X1
*C2_R1_C1 1.553e+00 6.236e-03 1.553e+00 
*LOADS
*RC U60:A 1.937e-02
*END

*R_NET n61 3.081e+00
*DRIVER U72:ZN
*CELL NAND2_X1
*C2_R1_C1 1.541e+00 6.236e-03 1.541e+00 
*LOADS
*RC U55:A 1.921e-02
*END

*R_NET n62 3.383e+00
*DRIVER U56:Z
*CELL XOR2_X1
*C2_R1_C1 1.692e+00 6.236e-03 1.692e+00 
*LOADS
*RC U55:B 2.110e-02
*END

*R_NET n63 2.187e+00
*DRIVER U73:ZN
*CELL NAND2_X1
*C2_R1_C1 1.093e+00 6.236e-03 1.093e+00 
*LOADS
*RC U72:A1 1.364e-02
*END

*R_NET n64 2.314e+00
*DRIVER U79:ZN
*CELL NAND2_X1
*C2_R1_C1 1.157e+00 6.236e-03 1.157e+00 
*LOADS
*RC U72:A2 1.443e-02
*END

*R_NET n65 5.777e+00
*DRIVER U58:Z
*CELL XOR2_X1
*C2_R1_C1 2.888e+00 1.407e-02 2.888e+00 
*LOADS
*RC U79:A2 1.656e-02
*RC U57:B 2.408e-02
*END

*R_NET n66 5.475e+00
*DRIVER U89:ZN
*CELL NAND2_X1
*C2_R1_C1 2.737e+00 1.407e-02 2.737e+00 
*LOADS
*RC U73:A2 1.656e-02
*RC U58:A 2.195e-02
*END

*R_NET n67 2.187e+00
*DRIVER U91:ZN
*CELL NAND2_X1
*C2_R1_C1 1.093e+00 6.236e-03 1.093e+00 
*LOADS
*RC U89:A1 1.364e-02
*END

*R_NET n68 2.314e+00
*DRIVER U90:ZN
*CELL NAND3_X1
*C2_R1_C1 1.157e+00 6.236e-03 1.157e+00 
*LOADS
*RC U89:A2 1.443e-02
*END

*R_NET n69 3.106e+00
*DRIVER U67:ZN
*CELL NAND2_X1
*C2_R1_C1 1.553e+00 6.236e-03 1.553e+00 
*LOADS
*RC U66:A 1.937e-02
*END
