*SPEF "IEEE 1481-1999"
*DESIGN "array_multiplier8"
*DATE "Thu Sep 10 20:52:35 2020"
*VENDOR "SYNOPSYS INC"
*PROGRAM "Synopsys Design Compiler cmos"
*VERSION "N-2017.09-SP3"
*DESIGN_FLOW "SYNTHESIS"
*DIVIDER /
*DELIMITER :
*BUS_DELIMITER []
*T_UNIT 1.0 NS
*C_UNIT 0.0010 PF
*R_UNIT 1000.0 KOHM
*L_UNIT 1.0 HENRY

*PORTS

op1_i\[7\] I *L 0.000e+00 *S 0.000e+00 0.000e+00 
op1_i\[6\] I *L 0.000e+00 *S 0.000e+00 0.000e+00 
op1_i\[5\] I *L 0.000e+00 *S 0.000e+00 0.000e+00 
op1_i\[4\] I *L 0.000e+00 *S 0.000e+00 0.000e+00 
op1_i\[3\] I *L 0.000e+00 *S 0.000e+00 0.000e+00 
op1_i\[2\] I *L 0.000e+00 *S 0.000e+00 0.000e+00 
op1_i\[1\] I *L 0.000e+00 *S 0.000e+00 0.000e+00 
op1_i\[0\] I *L 0.000e+00 *S 0.000e+00 0.000e+00 
op2_i\[7\] I *L 0.000e+00 *S 0.000e+00 0.000e+00 
op2_i\[6\] I *L 0.000e+00 *S 0.000e+00 0.000e+00 
op2_i\[5\] I *L 0.000e+00 *S 0.000e+00 0.000e+00 
op2_i\[4\] I *L 0.000e+00 *S 0.000e+00 0.000e+00 
op2_i\[3\] I *L 0.000e+00 *S 0.000e+00 0.000e+00 
op2_i\[2\] I *L 0.000e+00 *S 0.000e+00 0.000e+00 
op2_i\[1\] I *L 0.000e+00 *S 0.000e+00 0.000e+00 
op2_i\[0\] I *L 0.000e+00 *S 0.000e+00 0.000e+00 
product_o\[15\] O *L 1.000e-01 *S 4.022e-03 1.610e-03 
product_o\[14\] O *L 1.000e-01 *S 2.769e-03 1.850e-03 
product_o\[13\] O *L 1.000e-01 *S 2.769e-03 1.850e-03 
product_o\[12\] O *L 1.000e-01 *S 2.769e-03 1.850e-03 
product_o\[11\] O *L 1.000e-01 *S 2.700e-03 1.836e-03 
product_o\[10\] O *L 1.000e-01 *S 2.769e-03 1.850e-03 
product_o\[9\] O *L 1.000e-01 *S 2.700e-03 1.836e-03 
product_o\[8\] O *L 1.000e-01 *S 2.700e-03 1.836e-03 
product_o\[7\] O *L 1.000e-01 *S 2.769e-03 1.850e-03 
product_o\[6\] O *L 1.000e-01 *S 2.700e-03 1.836e-03 
product_o\[5\] O *L 1.000e-01 *S 2.700e-03 1.836e-03 
product_o\[4\] O *L 1.000e-01 *S 2.700e-03 1.836e-03 
product_o\[3\] O *L 1.000e-01 *S 2.700e-03 1.836e-03 
product_o\[2\] O *L 1.000e-01 *S 2.769e-03 1.850e-03 
product_o\[1\] O *L 1.000e-01 *S 2.769e-03 1.850e-03 
product_o\[0\] O *L 1.000e-01 *S 8.621e-03 6.221e-03 

*R_NET op1_i\[7\] 1.567e+01
*DRIVER op1_i\[7\]
*CELL NULL
*C2_R1_C1 7.833e+00 8.097e-02 7.833e+00 
*LOADS
*RC U625:A1 2.409e-02
*RC U631:A2 2.538e-02
*RC U645:A 2.581e-02
*RC U651:A1 1.616e-02
*RC U663:A2 1.678e-02
*RC U664:A2 1.678e-02
*RC U665:A2 1.678e-02
*RC U688:A2 1.678e-02
*END

*R_NET op1_i\[6\] 1.326e+01
*DRIVER op1_i\[6\]
*CELL NULL
*C2_R1_C1 6.631e+00 8.097e-02 6.631e+00 
*LOADS
*RC U644:A2 1.678e-02
*RC U647:A2 1.678e-02
*RC U649:A2 1.678e-02
*RC U657:A2 1.678e-02
*RC U676:A2 1.678e-02
*RC U681:A2 1.678e-02
*RC U684:A2 1.678e-02
*RC U694:A2 1.678e-02
*END

*R_NET op1_i\[5\] 1.405e+01
*DRIVER op1_i\[5\]
*CELL NULL
*C2_R1_C1 7.026e+00 8.097e-02 7.026e+00 
*LOADS
*RC U630:A2 1.678e-02
*RC U639:A2 2.538e-02
*RC U656:A2 1.678e-02
*RC U660:A1 1.616e-02
*RC U669:A2 1.678e-02
*RC U674:A2 1.678e-02
*RC U675:A2 1.678e-02
*RC U693:A2 1.678e-02
*END

*R_NET op1_i\[4\] 1.320e+01
*DRIVER op1_i\[4\]
*CELL NULL
*C2_R1_C1 6.601e+00 8.097e-02 6.601e+00 
*LOADS
*RC U629:A2 1.678e-02
*RC U636:A2 1.678e-02
*RC U652:A2 1.678e-02
*RC U653:A1 1.616e-02
*RC U654:A2 1.678e-02
*RC U677:A2 1.678e-02
*RC U680:A2 1.678e-02
*RC U682:A2 1.678e-02
*END

*R_NET op1_i\[3\] 1.405e+01
*DRIVER op1_i\[3\]
*CELL NULL
*C2_R1_C1 7.026e+00 8.097e-02 7.026e+00 
*LOADS
*RC U620:A2 2.538e-02
*RC U635:A2 1.678e-02
*RC U650:A2 1.678e-02
*RC U655:A2 1.678e-02
*RC U659:A1 1.616e-02
*RC U668:A2 1.678e-02
*RC U679:A2 1.678e-02
*RC U683:A2 1.678e-02
*END

*R_NET op1_i\[2\] 1.895e+01
*DRIVER op1_i\[2\]
*CELL NULL
*C2_R1_C1 9.477e+00 8.097e-02 9.477e+00 
*LOADS
*RC U619:A1 2.409e-02
*RC U621:A1 2.409e-02
*RC U634:A2 1.678e-02
*RC U638:A2 2.538e-02
*RC U640:A2 2.538e-02
*RC U641:A2 2.538e-02
*RC U661:A2 2.538e-02
*RC U662:A2 2.538e-02
*END

*R_NET op1_i\[1\] 1.823e+01
*DRIVER op1_i\[1\]
*CELL NULL
*C2_R1_C1 9.116e+00 8.097e-02 9.116e+00 
*LOADS
*RC U626:A1 2.409e-02
*RC U628:A2 1.678e-02
*RC U642:A2 2.538e-02
*RC U643:A2 2.538e-02
*RC U646:A2 2.538e-02
*RC U666:A2 2.538e-02
*RC U667:A2 1.678e-02
*RC U689:A2 2.538e-02
*END

*R_NET op1_i\[0\] 3.065e+01
*DRIVER op1_i\[0\]
*CELL NULL
*C2_R1_C1 1.533e+01 1.323e-01 1.533e+01 
*LOADS
*RC U615:A3 2.533e-02
*RC U616:A1 2.382e-02
*RC U617:A1 2.382e-02
*RC U618:A2 2.440e-02
*RC U627:A2 2.440e-02
*RC U637:A1 1.627e-02
*RC U648:A2 2.553e-02
*RC U671:A1 2.424e-02
*RC U673:A1 2.424e-02
*RC U685:A 2.597e-02
*RC U687:A2 2.553e-02
*RC U690:A1 2.424e-02
*RC U692:A1 2.424e-02
*END

*R_NET op2_i\[7\] 1.767e+01
*DRIVER op2_i\[7\]
*CELL NULL
*C2_R1_C1 8.835e+00 9.102e-02 8.835e+00 
*LOADS
*RC U631:A1 2.406e-02
*RC U648:A1 2.406e-02
*RC U662:A1 2.406e-02
*RC U667:A1 1.614e-02
*RC U677:A1 1.614e-02
*RC U678:A 2.579e-02
*RC U683:A1 1.614e-02
*RC U693:A1 1.614e-02
*RC U694:A1 1.614e-02
*END

*R_NET op2_i\[6\] 1.761e+01
*DRIVER op2_i\[6\]
*CELL NULL
*C2_R1_C1 8.803e+00 9.102e-02 8.803e+00 
*LOADS
*RC U617:A3 2.514e-02
*RC U661:A1 2.406e-02
*RC U666:A1 2.406e-02
*RC U668:A1 1.614e-02
*RC U669:A1 1.614e-02
*RC U682:A1 1.614e-02
*RC U684:A1 1.614e-02
*RC U687:A1 2.406e-02
*RC U688:A1 1.614e-02
*END

*R_NET op2_i\[5\] 1.758e+01
*DRIVER op2_i\[5\]
*CELL NULL
*C2_R1_C1 8.788e+00 9.102e-02 8.788e+00 
*LOADS
*RC U618:A1 2.365e-02
*RC U641:A1 2.406e-02
*RC U643:A1 2.406e-02
*RC U665:A1 1.614e-02
*RC U673:A2 2.535e-02
*RC U675:A1 1.614e-02
*RC U676:A1 1.614e-02
*RC U679:A1 1.614e-02
*RC U680:A1 1.614e-02
*END

*R_NET op2_i\[4\] 1.773e+01
*DRIVER op2_i\[4\]
*CELL NULL
*C2_R1_C1 8.867e+00 9.102e-02 8.867e+00 
*LOADS
*RC U616:A3 2.514e-02
*RC U640:A1 2.406e-02
*RC U642:A1 2.406e-02
*RC U652:A1 1.614e-02
*RC U655:A1 1.614e-02
*RC U664:A1 1.614e-02
*RC U671:A2 2.535e-02
*RC U674:A1 1.614e-02
*RC U681:A1 1.614e-02
*END

*R_NET op2_i\[3\] 1.758e+01
*DRIVER op2_i\[3\]
*CELL NULL
*C2_R1_C1 8.788e+00 9.102e-02 8.788e+00 
*LOADS
*RC U627:A1 2.365e-02
*RC U638:A1 2.406e-02
*RC U646:A1 2.406e-02
*RC U650:A1 1.614e-02
*RC U654:A1 1.614e-02
*RC U656:A1 1.614e-02
*RC U657:A1 1.614e-02
*RC U663:A1 1.614e-02
*RC U692:A2 2.535e-02
*END

*R_NET op2_i\[2\] 1.646e+01
*DRIVER op2_i\[2\]
*CELL NULL
*C2_R1_C1 8.232e+00 8.097e-02 8.232e+00 
*LOADS
*RC U615:A1 2.368e-02
*RC U621:A2 2.538e-02
*RC U626:A2 2.538e-02
*RC U647:A1 1.616e-02
*RC U653:A2 1.678e-02
*RC U658:A 2.581e-02
*RC U659:A2 1.678e-02
*RC U660:A2 1.678e-02
*END

*R_NET op2_i\[1\] 1.707e+01
*DRIVER op2_i\[1\]
*CELL NULL
*C2_R1_C1 8.536e+00 8.097e-02 8.536e+00 
*LOADS
*RC U619:A2 2.538e-02
*RC U620:A1 2.409e-02
*RC U625:A2 2.538e-02
*RC U628:A1 1.616e-02
*RC U629:A1 1.616e-02
*RC U639:A1 2.409e-02
*RC U644:A1 1.616e-02
*RC U690:A2 2.538e-02
*END

*R_NET op2_i\[0\] 1.368e+01
*DRIVER op2_i\[0\]
*CELL NULL
*C2_R1_C1 6.840e+00 8.097e-02 6.840e+00 
*LOADS
*RC U630:A1 1.616e-02
*RC U634:A1 1.616e-02
*RC U635:A1 1.616e-02
*RC U636:A1 1.616e-02
*RC U637:A2 1.678e-02
*RC U649:A1 1.616e-02
*RC U651:A2 1.678e-02
*RC U689:A1 2.409e-02
*END

*R_NET product_o\[15\] 4.097e-01
*DRIVER U477:ZN
*CELL NOR3_X1
*C2_R1_C1 2.049e-01 6.236e-03 2.049e-01 
*LOADS
*RC product_o\[15\] 2.555e-03
*END

*R_NET product_o\[14\] 4.097e-01
*DRIVER U331:Z
*CELL XOR2_X1
*C2_R1_C1 2.049e-01 6.236e-03 2.049e-01 
*LOADS
*RC product_o\[14\] 2.555e-03
*END

*R_NET product_o\[13\] 4.097e-01
*DRIVER U332:Z
*CELL XOR2_X1
*C2_R1_C1 2.049e-01 6.236e-03 2.049e-01 
*LOADS
*RC product_o\[13\] 2.555e-03
*END

*R_NET product_o\[12\] 4.097e-01
*DRIVER U334:Z
*CELL XOR2_X1
*C2_R1_C1 2.049e-01 6.236e-03 2.049e-01 
*LOADS
*RC product_o\[12\] 2.555e-03
*END

*R_NET product_o\[11\] 4.097e-01
*DRIVER U608:ZN
*CELL XNOR2_X1
*C2_R1_C1 2.049e-01 6.236e-03 2.049e-01 
*LOADS
*RC product_o\[11\] 2.555e-03
*END

*R_NET product_o\[10\] 4.097e-01
*DRIVER U339:Z
*CELL XOR2_X1
*C2_R1_C1 2.049e-01 6.236e-03 2.049e-01 
*LOADS
*RC product_o\[10\] 2.555e-03
*END

*R_NET product_o\[9\] 4.097e-01
*DRIVER U612:ZN
*CELL XNOR2_X1
*C2_R1_C1 2.049e-01 6.236e-03 2.049e-01 
*LOADS
*RC product_o\[9\] 2.555e-03
*END

*R_NET product_o\[8\] 4.097e-01
*DRIVER U610:ZN
*CELL XNOR2_X1
*C2_R1_C1 2.049e-01 6.236e-03 2.049e-01 
*LOADS
*RC product_o\[8\] 2.555e-03
*END

*R_NET product_o\[7\] 4.097e-01
*DRIVER U325:Z
*CELL XOR2_X1
*C2_R1_C1 2.049e-01 6.236e-03 2.049e-01 
*LOADS
*RC product_o\[7\] 2.555e-03
*END

*R_NET product_o\[6\] 4.097e-01
*DRIVER U686:ZN
*CELL XNOR2_X1
*C2_R1_C1 2.049e-01 6.236e-03 2.049e-01 
*LOADS
*RC product_o\[6\] 2.555e-03
*END

*R_NET product_o\[5\] 4.097e-01
*DRIVER U672:ZN
*CELL XNOR2_X1
*C2_R1_C1 2.049e-01 6.236e-03 2.049e-01 
*LOADS
*RC product_o\[5\] 2.555e-03
*END

*R_NET product_o\[4\] 4.097e-01
*DRIVER U670:ZN
*CELL XNOR2_X1
*C2_R1_C1 2.049e-01 6.236e-03 2.049e-01 
*LOADS
*RC product_o\[4\] 2.555e-03
*END

*R_NET product_o\[3\] 4.097e-01
*DRIVER U691:ZN
*CELL XNOR2_X1
*C2_R1_C1 2.049e-01 6.236e-03 2.049e-01 
*LOADS
*RC product_o\[3\] 2.555e-03
*END

*R_NET product_o\[2\] 4.097e-01
*DRIVER U329:Z
*CELL XOR2_X1
*C2_R1_C1 2.049e-01 6.236e-03 2.049e-01 
*LOADS
*RC product_o\[2\] 2.555e-03
*END

*R_NET product_o\[1\] 4.097e-01
*DRIVER U330:Z
*CELL XOR2_X1
*C2_R1_C1 2.049e-01 6.236e-03 2.049e-01 
*LOADS
*RC product_o\[1\] 2.555e-03
*END

*R_NET product_o\[0\] 2.676e+00
*DRIVER U637:ZN
*CELL AND2_X1
*C2_R1_C1 1.338e+00 1.407e-02 1.338e+00 
*LOADS
*RC U559:A1 1.566e-02
*RC product_o\[0\] 3.162e-03
*END

*R_NET n255 2.187e+00
*DRIVER U369:ZN
*CELL INV_X1
*C2_R1_C1 1.093e+00 6.236e-03 1.093e+00 
*LOADS
*RC U632:A1 1.364e-02
*END

*R_NET n256 2.187e+00
*DRIVER U624:ZN
*CELL INV_X1
*C2_R1_C1 1.093e+00 6.236e-03 1.093e+00 
*LOADS
*RC U622:A1 1.364e-02
*END

*R_NET n257 7.280e+00
*DRIVER U645:ZN
*CELL INV_X1
*C2_R1_C1 3.640e+00 2.308e-02 3.640e+00 
*LOADS
*RC U384:A1 1.912e-02
*RC U477:A3 1.777e-02
*RC U607:A1 1.912e-02
*END

*R_NET n258 4.666e+00
*DRIVER U685:ZN
*CELL INV_X1
*C2_R1_C1 2.333e+00 1.407e-02 2.333e+00 
*LOADS
*RC U376:A2 1.654e-02
*RC U614:A2 1.628e-02
*END

*R_NET n259 5.031e+00
*DRIVER U678:ZN
*CELL INV_X1
*C2_R1_C1 2.515e+00 1.407e-02 2.515e+00 
*LOADS
*RC U376:A1 1.769e-02
*RC U477:A1 1.769e-02
*END

*R_NET n260 4.767e+00
*DRIVER U658:ZN
*CELL INV_X1
*C2_R1_C1 2.384e+00 1.407e-02 2.384e+00 
*LOADS
*RC U607:A2 1.628e-02
*RC U614:A1 1.725e-02
*END

*R_NET n261 5.372e+00
*DRIVER U409:ZN
*CELL XNOR2_X1
*C2_R1_C1 2.686e+00 1.407e-02 2.686e+00 
*LOADS
*RC U484:A1 1.566e-02
*RC U612:A 2.213e-02
*END

*R_NET n262 3.224e+00
*DRIVER U613:ZN
*CELL XNOR2_X1
*C2_R1_C1 1.612e+00 6.236e-03 1.612e+00 
*LOADS
*RC U612:B 2.010e-02
*END

*R_NET n263 6.936e+00
*DRIVER U465:ZN
*CELL AND2_X1
*C2_R1_C1 3.468e+00 2.308e-02 3.468e+00 
*LOADS
*RC U485:A1 1.738e-02
*RC U483:A2 1.152e-02
*RC U613:A 2.446e-02
*END

*R_NET n264 7.198e+00
*DRIVER U662:ZN
*CELL NAND2_X1
*C2_R1_C1 3.599e+00 2.308e-02 3.599e+00 
*LOADS
*RC U485:A2 1.836e-02
*RC U483:A1 1.175e-02
*RC U613:B 2.536e-02
*END

*R_NET n265 3.106e+00
*DRIVER U611:ZN
*CELL XNOR2_X1
*C2_R1_C1 1.553e+00 6.236e-03 1.553e+00 
*LOADS
*RC U610:A 1.937e-02
*END

*R_NET n266 5.478e+00
*DRIVER U401:ZN
*CELL XNOR2_X1
*C2_R1_C1 2.739e+00 1.407e-02 2.739e+00 
*LOADS
*RC U467:A1 1.566e-02
*RC U610:B 2.296e-02
*END

*R_NET n267 6.965e+00
*DRIVER U376:ZN
*CELL NOR3_X1
*C2_R1_C1 3.482e+00 2.308e-02 3.482e+00 
*LOADS
*RC U468:A1 1.175e-02
*RC U466:A1 1.738e-02
*RC U611:A 2.446e-02
*END

*R_NET n268 7.169e+00
*DRIVER U667:ZN
*CELL AND2_X1
*C2_R1_C1 3.584e+00 2.308e-02 3.584e+00 
*LOADS
*RC U468:A2 1.152e-02
*RC U466:A2 1.836e-02
*RC U611:B 2.536e-02
*END

*R_NET n269 3.081e+00
*DRIVER U648:ZN
*CELL NAND2_X1
*C2_R1_C1 1.541e+00 6.236e-03 1.541e+00 
*LOADS
*RC U325:A 1.921e-02
*END

*R_NET n270 5.700e+00
*DRIVER U341:Z
*CELL XOR2_X1
*C2_R1_C1 2.850e+00 1.407e-02 2.850e+00 
*LOADS
*RC U376:A3 1.602e-02
*RC U325:B 2.408e-02
*END

*R_NET n271 3.106e+00
*DRIVER U687:ZN
*CELL NAND2_X1
*C2_R1_C1 1.553e+00 6.236e-03 1.553e+00 
*LOADS
*RC U686:A 1.937e-02
*END

*R_NET n272 5.495e+00
*DRIVER U385:ZN
*CELL XNOR2_X1
*C2_R1_C1 2.747e+00 1.407e-02 2.747e+00 
*LOADS
*RC U617:A2 1.578e-02
*RC U686:B 2.296e-02
*END

*R_NET n273 5.479e+00
*DRIVER U415:ZN
*CELL XNOR2_X1
*C2_R1_C1 2.740e+00 1.407e-02 2.740e+00 
*LOADS
*RC U618:A3 1.641e-02
*RC U672:A 2.213e-02
*END

*R_NET n276 5.495e+00
*DRIVER U355:Z
*CELL XOR2_X1
*C2_R1_C1 2.747e+00 1.407e-02 2.747e+00 
*LOADS
*RC U616:A2 1.578e-02
*RC U670:B 2.296e-02
*END

*R_NET n277 5.479e+00
*DRIVER U417:ZN
*CELL XNOR2_X1
*C2_R1_C1 2.740e+00 1.407e-02 2.740e+00 
*LOADS
*RC U627:A3 1.641e-02
*RC U691:A 2.213e-02
*END

*R_NET n279 3.081e+00
*DRIVER U614:ZN
*CELL NOR2_X1
*C2_R1_C1 1.541e+00 6.236e-03 1.541e+00 
*LOADS
*RC U329:A 1.921e-02
*END

*R_NET n280 5.666e+00
*DRIVER U367:Z
*CELL XOR2_X1
*C2_R1_C1 2.833e+00 1.407e-02 2.833e+00 
*LOADS
*RC U615:A2 1.578e-02
*RC U329:B 2.408e-02
*END

*R_NET n281 3.081e+00
*DRIVER U689:ZN
*CELL NAND2_X1
*C2_R1_C1 1.541e+00 6.236e-03 1.541e+00 
*LOADS
*RC U330:A 1.921e-02
*END

*R_NET n282 3.383e+00
*DRIVER U690:ZN
*CELL NAND2_X1
*C2_R1_C1 1.692e+00 6.236e-03 1.692e+00 
*LOADS
*RC U330:B 2.110e-02
*END

*R_NET n283 4.748e+00
*DRIVER U370:ZN
*CELL NOR2_X1
*C2_R1_C1 2.374e+00 1.407e-02 2.374e+00 
*LOADS
*RC U369:A 1.686e-02
*RC U477:A2 1.654e-02
*END

*R_NET n284 3.081e+00
*DRIVER U632:ZN
*CELL NAND2_X1
*C2_R1_C1 1.541e+00 6.236e-03 1.541e+00 
*LOADS
*RC U331:A 1.921e-02
*END

*R_NET n285 3.383e+00
*DRIVER U631:ZN
*CELL NAND2_X1
*C2_R1_C1 1.692e+00 6.236e-03 1.692e+00 
*LOADS
*RC U331:B 2.110e-02
*END

*R_NET n286 2.314e+00
*DRIVER U633:ZN
*CELL NAND2_X1
*C2_R1_C1 1.157e+00 6.236e-03 1.157e+00 
*LOADS
*RC U632:A2 1.443e-02
*END

*R_NET n287 4.541e+00
*DRIVER U560:ZN
*CELL NAND2_X1
*C2_R1_C1 2.271e+00 1.407e-02 2.271e+00 
*LOADS
*RC U370:A2 1.628e-02
*RC U633:A1 1.566e-02
*END

*R_NET n288 4.806e+00
*DRIVER U555:ZN
*CELL NAND2_X1
*C2_R1_C1 2.403e+00 1.407e-02 2.403e+00 
*LOADS
*RC U370:A1 1.725e-02
*RC U633:A2 1.656e-02
*END

*R_NET n289 2.187e+00
*DRIVER U562:ZN
*CELL NAND2_X1
*C2_R1_C1 1.093e+00 6.236e-03 1.093e+00 
*LOADS
*RC U560:A1 1.364e-02
*END

*R_NET n290 2.314e+00
*DRIVER U561:ZN
*CELL NAND2_X1
*C2_R1_C1 1.157e+00 6.236e-03 1.157e+00 
*LOADS
*RC U560:A2 1.443e-02
*END

*R_NET n291 7.803e+00
*DRIVER U688:ZN
*CELL AND2_X1
*C2_R1_C1 3.901e+00 2.308e-02 3.901e+00 
*LOADS
*RC U406:B 2.536e-02
*RC U562:A1 1.738e-02
*RC U561:A1 1.738e-02
*END

*R_NET n292 5.500e+00
*DRIVER U532:ZN
*CELL NAND2_X1
*C2_R1_C1 2.750e+00 1.407e-02 2.750e+00 
*LOADS
*RC U406:A 2.213e-02
*RC U561:A2 1.656e-02
*END

*R_NET n293 5.500e+00
*DRIVER U547:ZN
*CELL NAND2_X1
*C2_R1_C1 2.750e+00 1.407e-02 2.750e+00 
*LOADS
*RC U405:A 2.213e-02
*RC U562:A2 1.656e-02
*END

*R_NET n294 2.187e+00
*DRIVER U556:ZN
*CELL NAND2_X1
*C2_R1_C1 1.093e+00 6.236e-03 1.093e+00 
*LOADS
*RC U555:A1 1.364e-02
*END

*R_NET n295 2.314e+00
*DRIVER U557:ZN
*CELL NAND2_X1
*C2_R1_C1 1.157e+00 6.236e-03 1.157e+00 
*LOADS
*RC U555:A2 1.443e-02
*END

*R_NET n296 5.649e+00
*DRIVER U694:ZN
*CELL AND2_X1
*C2_R1_C1 2.825e+00 1.407e-02 2.825e+00 
*LOADS
*RC U557:A1 1.566e-02
*RC U333:B 2.408e-02
*END

*R_NET n297 2.314e+00
*DRIVER U558:ZN
*CELL OR2_X1
*C2_R1_C1 1.157e+00 6.236e-03 1.157e+00 
*LOADS
*RC U557:A2 1.443e-02
*END

*R_NET n298 7.067e+00
*DRIVER U506:ZN
*CELL NAND2_X1
*C2_R1_C1 3.533e+00 2.308e-02 3.533e+00 
*LOADS
*RC U558:A1 1.175e-02
*RC U556:A2 1.836e-02
*RC U333:A 2.426e-02
*END

*R_NET n299 7.213e+00
*DRIVER U405:ZN
*CELL XNOR2_X1
*C2_R1_C1 3.606e+00 2.308e-02 3.606e+00 
*LOADS
*RC U558:A2 1.152e-02
*RC U556:A1 1.738e-02
*RC U332:B 2.659e-02
*END

*R_NET n300 3.081e+00
*DRIVER U333:Z
*CELL XOR2_X1
*C2_R1_C1 1.541e+00 6.236e-03 1.541e+00 
*LOADS
*RC U332:A 1.921e-02
*END

*R_NET n301 3.224e+00
*DRIVER U406:ZN
*CELL XNOR2_X1
*C2_R1_C1 1.612e+00 6.236e-03 1.612e+00 
*LOADS
*RC U405:B 2.010e-02
*END

*R_NET n302 2.187e+00
*DRIVER U534:ZN
*CELL NAND2_X1
*C2_R1_C1 1.093e+00 6.236e-03 1.093e+00 
*LOADS
*RC U532:A1 1.364e-02
*END

*R_NET n303 2.314e+00
*DRIVER U533:ZN
*CELL NAND2_X1
*C2_R1_C1 1.157e+00 6.236e-03 1.157e+00 
*LOADS
*RC U532:A2 1.443e-02
*END

*R_NET n304 7.803e+00
*DRIVER U665:ZN
*CELL AND2_X1
*C2_R1_C1 3.901e+00 2.308e-02 3.901e+00 
*LOADS
*RC U392:B 2.536e-02
*RC U534:A1 1.738e-02
*RC U533:A1 1.738e-02
*END

*R_NET n305 5.500e+00
*DRIVER U529:ZN
*CELL NAND2_X1
*C2_R1_C1 2.750e+00 1.407e-02 2.750e+00 
*LOADS
*RC U392:A 2.213e-02
*RC U533:A2 1.656e-02
*END

*R_NET n306 5.500e+00
*DRIVER U535:ZN
*CELL NAND2_X1
*C2_R1_C1 2.750e+00 1.407e-02 2.750e+00 
*LOADS
*RC U391:A 2.213e-02
*RC U534:A2 1.656e-02
*END

*R_NET n307 2.187e+00
*DRIVER U548:ZN
*CELL NAND2_X1
*C2_R1_C1 1.093e+00 6.236e-03 1.093e+00 
*LOADS
*RC U547:A1 1.364e-02
*END

*R_NET n308 2.314e+00
*DRIVER U549:ZN
*CELL NAND2_X1
*C2_R1_C1 1.157e+00 6.236e-03 1.157e+00 
*LOADS
*RC U547:A2 1.443e-02
*END

*R_NET n309 5.649e+00
*DRIVER U684:ZN
*CELL AND2_X1
*C2_R1_C1 2.825e+00 1.407e-02 2.825e+00 
*LOADS
*RC U549:A1 1.566e-02
*RC U337:B 2.408e-02
*END

*R_NET n310 2.314e+00
*DRIVER U550:ZN
*CELL OR2_X1
*C2_R1_C1 1.157e+00 6.236e-03 1.157e+00 
*LOADS
*RC U549:A2 1.443e-02
*END

*R_NET n311 7.241e+00
*DRIVER U391:ZN
*CELL XNOR2_X1
*C2_R1_C1 3.621e+00 2.308e-02 3.621e+00 
*LOADS
*RC U550:A1 1.175e-02
*RC U548:A1 1.738e-02
*RC U336:B 2.659e-02
*END

*R_NET n312 7.038e+00
*DRIVER U518:ZN
*CELL NAND2_X1
*C2_R1_C1 3.519e+00 2.308e-02 3.519e+00 
*LOADS
*RC U550:A2 1.152e-02
*RC U548:A2 1.836e-02
*RC U337:A 2.426e-02
*END

*R_NET n313 2.187e+00
*DRIVER U507:ZN
*CELL NAND2_X1
*C2_R1_C1 1.093e+00 6.236e-03 1.093e+00 
*LOADS
*RC U506:A1 1.364e-02
*END

*R_NET n314 2.314e+00
*DRIVER U508:ZN
*CELL NAND2_X1
*C2_R1_C1 1.157e+00 6.236e-03 1.157e+00 
*LOADS
*RC U506:A2 1.443e-02
*END

*R_NET n315 5.649e+00
*DRIVER U693:ZN
*CELL AND2_X1
*C2_R1_C1 2.825e+00 1.407e-02 2.825e+00 
*LOADS
*RC U508:A1 1.566e-02
*RC U335:B 2.408e-02
*END

*R_NET n316 2.314e+00
*DRIVER U509:ZN
*CELL OR2_X1
*C2_R1_C1 1.157e+00 6.236e-03 1.157e+00 
*LOADS
*RC U508:A2 1.443e-02
*END

*R_NET n317 7.067e+00
*DRIVER U494:ZN
*CELL NAND2_X1
*C2_R1_C1 3.533e+00 2.308e-02 3.533e+00 
*LOADS
*RC U509:A1 1.175e-02
*RC U507:A2 1.836e-02
*RC U335:A 2.426e-02
*END

*R_NET n318 6.911e+00
*DRIVER U336:Z
*CELL XOR2_X1
*C2_R1_C1 3.455e+00 2.308e-02 3.455e+00 
*LOADS
*RC U509:A2 1.152e-02
*RC U507:A1 1.738e-02
*RC U334:A 2.426e-02
*END

*R_NET n319 3.383e+00
*DRIVER U335:Z
*CELL XOR2_X1
*C2_R1_C1 1.692e+00 6.236e-03 1.692e+00 
*LOADS
*RC U334:B 2.110e-02
*END

*R_NET n320 2.187e+00
*DRIVER U495:ZN
*CELL NAND2_X1
*C2_R1_C1 1.093e+00 6.236e-03 1.093e+00 
*LOADS
*RC U494:A1 1.364e-02
*END

*R_NET n321 2.314e+00
*DRIVER U496:ZN
*CELL NAND2_X1
*C2_R1_C1 1.157e+00 6.236e-03 1.157e+00 
*LOADS
*RC U494:A2 1.443e-02
*END

*R_NET n322 5.372e+00
*DRIVER U677:ZN
*CELL AND2_X1
*C2_R1_C1 2.686e+00 1.407e-02 2.686e+00 
*LOADS
*RC U496:A1 1.566e-02
*RC U609:A 2.213e-02
*END

*R_NET n323 2.314e+00
*DRIVER U497:ZN
*CELL OR2_X1
*C2_R1_C1 1.157e+00 6.236e-03 1.157e+00 
*LOADS
*RC U496:A2 1.443e-02
*END

*R_NET n324 7.198e+00
*DRIVER U435:ZN
*CELL NAND2_X1
*C2_R1_C1 3.599e+00 2.308e-02 3.599e+00 
*LOADS
*RC U497:A1 1.175e-02
*RC U495:A2 1.836e-02
*RC U609:B 2.536e-02
*END

*R_NET n325 6.936e+00
*DRIVER U382:ZN
*CELL XNOR2_X1
*C2_R1_C1 3.468e+00 2.308e-02 3.468e+00 
*LOADS
*RC U497:A2 1.152e-02
*RC U495:A1 1.738e-02
*RC U608:A 2.446e-02
*END

*R_NET n326 3.081e+00
*DRIVER U337:Z
*CELL XOR2_X1
*C2_R1_C1 1.541e+00 6.236e-03 1.541e+00 
*LOADS
*RC U336:A 1.921e-02
*END

*R_NET n327 3.224e+00
*DRIVER U392:ZN
*CELL XNOR2_X1
*C2_R1_C1 1.612e+00 6.236e-03 1.612e+00 
*LOADS
*RC U391:B 2.010e-02
*END

*R_NET n328 2.187e+00
*DRIVER U531:ZN
*CELL NAND2_X1
*C2_R1_C1 1.093e+00 6.236e-03 1.093e+00 
*LOADS
*RC U529:A1 1.364e-02
*END

*R_NET n329 2.314e+00
*DRIVER U530:ZN
*CELL NAND2_X1
*C2_R1_C1 1.157e+00 6.236e-03 1.157e+00 
*LOADS
*RC U529:A2 1.443e-02
*END

*R_NET n330 7.803e+00
*DRIVER U664:ZN
*CELL AND2_X1
*C2_R1_C1 3.901e+00 2.308e-02 3.901e+00 
*LOADS
*RC U408:B 2.536e-02
*RC U531:A1 1.738e-02
*RC U530:A1 1.738e-02
*END

*R_NET n331 5.500e+00
*DRIVER U526:ZN
*CELL NAND2_X1
*C2_R1_C1 2.750e+00 1.407e-02 2.750e+00 
*LOADS
*RC U408:A 2.213e-02
*RC U530:A2 1.656e-02
*END

*R_NET n332 5.500e+00
*DRIVER U543:ZN
*CELL NAND2_X1
*C2_R1_C1 2.750e+00 1.407e-02 2.750e+00 
*LOADS
*RC U407:A 2.213e-02
*RC U531:A2 1.656e-02
*END

*R_NET n333 2.187e+00
*DRIVER U536:ZN
*CELL NAND2_X1
*C2_R1_C1 1.093e+00 6.236e-03 1.093e+00 
*LOADS
*RC U535:A1 1.364e-02
*END

*R_NET n334 2.314e+00
*DRIVER U537:ZN
*CELL NAND2_X1
*C2_R1_C1 1.157e+00 6.236e-03 1.157e+00 
*LOADS
*RC U535:A2 1.443e-02
*END

*R_NET n335 5.372e+00
*DRIVER U676:ZN
*CELL AND2_X1
*C2_R1_C1 2.686e+00 1.407e-02 2.686e+00 
*LOADS
*RC U374:A 2.213e-02
*RC U537:A1 1.566e-02
*END

*R_NET n336 2.314e+00
*DRIVER U538:ZN
*CELL OR2_X1
*C2_R1_C1 1.157e+00 6.236e-03 1.157e+00 
*LOADS
*RC U537:A2 1.443e-02
*END

*R_NET n337 6.940e+00
*DRIVER U407:ZN
*CELL XNOR2_X1
*C2_R1_C1 3.470e+00 2.308e-02 3.470e+00 
*LOADS
*RC U538:A1 1.175e-02
*RC U536:A1 1.738e-02
*RC U338:A 2.426e-02
*END

*R_NET n338 7.169e+00
*DRIVER U443:ZN
*CELL NAND2_X1
*C2_R1_C1 3.584e+00 2.308e-02 3.584e+00 
*LOADS
*RC U374:B 2.536e-02
*RC U538:A2 1.152e-02
*RC U536:A2 1.836e-02
*END

*R_NET n339 2.187e+00
*DRIVER U519:ZN
*CELL OR2_X1
*C2_R1_C1 1.093e+00 6.236e-03 1.093e+00 
*LOADS
*RC U518:A1 1.364e-02
*END

*R_NET n340 2.314e+00
*DRIVER U520:ZN
*CELL NAND2_X1
*C2_R1_C1 1.157e+00 6.236e-03 1.157e+00 
*LOADS
*RC U518:A2 1.443e-02
*END

*R_NET n341 5.478e+00
*DRIVER U669:ZN
*CELL AND2_X1
*C2_R1_C1 2.739e+00 1.407e-02 2.739e+00 
*LOADS
*RC U383:B 2.296e-02
*RC U520:A1 1.566e-02
*END

*R_NET n342 2.314e+00
*DRIVER U521:ZN
*CELL NAND2_X1
*C2_R1_C1 1.157e+00 6.236e-03 1.157e+00 
*LOADS
*RC U520:A2 1.443e-02
*END

*R_NET n343 6.936e+00
*DRIVER U469:ZN
*CELL AND2_X1
*C2_R1_C1 3.468e+00 2.308e-02 3.468e+00 
*LOADS
*RC U383:A 2.446e-02
*RC U521:A1 1.738e-02
*RC U519:A2 1.152e-02
*END

*R_NET n344 7.198e+00
*DRIVER U338:Z
*CELL XOR2_X1
*C2_R1_C1 3.599e+00 2.308e-02 3.599e+00 
*LOADS
*RC U382:B 2.536e-02
*RC U521:A2 1.836e-02
*RC U519:A1 1.175e-02
*END

*R_NET n345 3.224e+00
*DRIVER U609:ZN
*CELL XNOR2_X1
*C2_R1_C1 1.612e+00 6.236e-03 1.612e+00 
*LOADS
*RC U608:B 2.010e-02
*END

*R_NET n346 2.187e+00
*DRIVER U436:ZN
*CELL NAND2_X1
*C2_R1_C1 1.093e+00 6.236e-03 1.093e+00 
*LOADS
*RC U435:A1 1.364e-02
*END

*R_NET n347 2.314e+00
*DRIVER U437:ZN
*CELL NAND2_X1
*C2_R1_C1 1.157e+00 6.236e-03 1.157e+00 
*LOADS
*RC U435:A2 1.443e-02
*END

*R_NET n348 5.649e+00
*DRIVER U683:ZN
*CELL AND2_X1
*C2_R1_C1 2.825e+00 1.407e-02 2.825e+00 
*LOADS
*RC U437:A1 1.566e-02
*RC U340:B 2.408e-02
*END

*R_NET n349 2.314e+00
*DRIVER U438:ZN
*CELL OR2_X1
*C2_R1_C1 1.157e+00 6.236e-03 1.157e+00 
*LOADS
*RC U437:A2 1.443e-02
*END

*R_NET n350 7.067e+00
*DRIVER U482:ZN
*CELL NAND2_X1
*C2_R1_C1 3.533e+00 2.308e-02 3.533e+00 
*LOADS
*RC U438:A1 1.175e-02
*RC U436:A2 1.836e-02
*RC U340:A 2.426e-02
*END

*R_NET n351 6.911e+00
*DRIVER U342:Z
*CELL XOR2_X1
*C2_R1_C1 3.455e+00 2.308e-02 3.455e+00 
*LOADS
*RC U438:A2 1.152e-02
*RC U436:A1 1.738e-02
*RC U339:A 2.426e-02
*END

*R_NET n352 3.106e+00
*DRIVER U383:ZN
*CELL XNOR2_X1
*C2_R1_C1 1.553e+00 6.236e-03 1.553e+00 
*LOADS
*RC U382:A 1.937e-02
*END

*R_NET n353 3.383e+00
*DRIVER U374:ZN
*CELL XNOR2_X1
*C2_R1_C1 1.692e+00 6.236e-03 1.692e+00 
*LOADS
*RC U338:B 2.110e-02
*END

*R_NET n354 2.187e+00
*DRIVER U444:ZN
*CELL NAND2_X1
*C2_R1_C1 1.093e+00 6.236e-03 1.093e+00 
*LOADS
*RC U443:A1 1.364e-02
*END

*R_NET n355 2.314e+00
*DRIVER U445:ZN
*CELL NAND2_X1
*C2_R1_C1 1.157e+00 6.236e-03 1.157e+00 
*LOADS
*RC U443:A2 1.443e-02
*END

*R_NET n356 5.372e+00
*DRIVER U675:ZN
*CELL AND2_X1
*C2_R1_C1 2.686e+00 1.407e-02 2.686e+00 
*LOADS
*RC U390:A 2.213e-02
*RC U445:A1 1.566e-02
*END

*R_NET n357 2.314e+00
*DRIVER U446:ZN
*CELL OR2_X1
*C2_R1_C1 1.157e+00 6.236e-03 1.157e+00 
*LOADS
*RC U445:A2 1.443e-02
*END

*R_NET n358 7.198e+00
*DRIVER U431:ZN
*CELL NAND2_X1
*C2_R1_C1 3.599e+00 2.308e-02 3.599e+00 
*LOADS
*RC U390:B 2.536e-02
*RC U446:A1 1.175e-02
*RC U444:A2 1.836e-02
*END

*R_NET n359 6.936e+00
*DRIVER U343:Z
*CELL XOR2_X1
*C2_R1_C1 3.468e+00 2.308e-02 3.468e+00 
*LOADS
*RC U389:A 2.446e-02
*RC U446:A2 1.152e-02
*RC U444:A1 1.738e-02
*END

*R_NET n360 3.224e+00
*DRIVER U408:ZN
*CELL XNOR2_X1
*C2_R1_C1 1.612e+00 6.236e-03 1.612e+00 
*LOADS
*RC U407:B 2.010e-02
*END

*R_NET n361 2.187e+00
*DRIVER U528:ZN
*CELL NAND2_X1
*C2_R1_C1 1.093e+00 6.236e-03 1.093e+00 
*LOADS
*RC U526:A1 1.364e-02
*END

*R_NET n362 2.314e+00
*DRIVER U527:ZN
*CELL NAND2_X1
*C2_R1_C1 1.157e+00 6.236e-03 1.157e+00 
*LOADS
*RC U526:A2 1.443e-02
*END

*R_NET n363 7.803e+00
*DRIVER U663:ZN
*CELL AND2_X1
*C2_R1_C1 3.901e+00 2.308e-02 3.901e+00 
*LOADS
*RC U388:B 2.536e-02
*RC U528:A1 1.738e-02
*RC U527:A1 1.738e-02
*END

*R_NET n364 5.500e+00
*DRIVER U371:ZN
*CELL NAND2_X1
*C2_R1_C1 2.750e+00 1.407e-02 2.750e+00 
*LOADS
*RC U388:A 2.213e-02
*RC U527:A2 1.656e-02
*END

*R_NET n365 5.500e+00
*DRIVER U539:ZN
*CELL NAND2_X1
*C2_R1_C1 2.750e+00 1.407e-02 2.750e+00 
*LOADS
*RC U387:A 2.213e-02
*RC U528:A2 1.656e-02
*END

*R_NET n366 2.187e+00
*DRIVER U544:ZN
*CELL NAND2_X1
*C2_R1_C1 1.093e+00 6.236e-03 1.093e+00 
*LOADS
*RC U543:A1 1.364e-02
*END

*R_NET n367 2.314e+00
*DRIVER U545:ZN
*CELL NAND2_X1
*C2_R1_C1 1.157e+00 6.236e-03 1.157e+00 
*LOADS
*RC U543:A2 1.443e-02
*END

*R_NET n368 5.649e+00
*DRIVER U681:ZN
*CELL AND2_X1
*C2_R1_C1 2.825e+00 1.407e-02 2.825e+00 
*LOADS
*RC U545:A1 1.566e-02
*RC U344:B 2.408e-02
*END

*R_NET n369 2.314e+00
*DRIVER U546:ZN
*CELL OR2_X1
*C2_R1_C1 1.157e+00 6.236e-03 1.157e+00 
*LOADS
*RC U545:A2 1.443e-02
*END

*R_NET n370 7.241e+00
*DRIVER U387:ZN
*CELL XNOR2_X1
*C2_R1_C1 3.621e+00 2.308e-02 3.621e+00 
*LOADS
*RC U546:A1 1.175e-02
*RC U544:A1 1.738e-02
*RC U343:B 2.659e-02
*END

*R_NET n371 7.038e+00
*DRIVER U522:ZN
*CELL NAND2_X1
*C2_R1_C1 3.519e+00 2.308e-02 3.519e+00 
*LOADS
*RC U546:A2 1.152e-02
*RC U544:A2 1.836e-02
*RC U344:A 2.426e-02
*END

*R_NET n372 1.404e+00
*DRIVER U470:ZN
*CELL NAND2_X1
*C2_R1_C1 7.019e-01 6.236e-03 7.019e-01 
*LOADS
*RC U469:A1 8.754e-03
*END

*R_NET n373 1.465e+00
*DRIVER U471:ZN
*CELL NAND2_X1
*C2_R1_C1 7.324e-01 6.236e-03 7.324e-01 
*LOADS
*RC U469:A2 9.134e-03
*END

*R_NET n374 5.649e+00
*DRIVER U682:ZN
*CELL AND2_X1
*C2_R1_C1 2.825e+00 1.407e-02 2.825e+00 
*LOADS
*RC U471:A1 1.566e-02
*RC U345:B 2.408e-02
*END

*R_NET n375 2.314e+00
*DRIVER U472:ZN
*CELL OR2_X1
*C2_R1_C1 1.157e+00 6.236e-03 1.157e+00 
*LOADS
*RC U471:A2 1.443e-02
*END

*R_NET n376 7.241e+00
*DRIVER U389:ZN
*CELL XNOR2_X1
*C2_R1_C1 3.621e+00 2.308e-02 3.621e+00 
*LOADS
*RC U472:A1 1.175e-02
*RC U470:A1 1.738e-02
*RC U342:B 2.659e-02
*END

*R_NET n377 7.038e+00
*DRIVER U514:ZN
*CELL NAND2_X1
*C2_R1_C1 3.519e+00 2.308e-02 3.519e+00 
*LOADS
*RC U472:A2 1.152e-02
*RC U470:A2 1.836e-02
*RC U345:A 2.426e-02
*END

*R_NET n378 3.383e+00
*DRIVER U340:Z
*CELL XOR2_X1
*C2_R1_C1 1.692e+00 6.236e-03 1.692e+00 
*LOADS
*RC U339:B 2.110e-02
*END

*R_NET n379 2.187e+00
*DRIVER U483:ZN
*CELL OR2_X1
*C2_R1_C1 1.093e+00 6.236e-03 1.093e+00 
*LOADS
*RC U482:A1 1.364e-02
*END

*R_NET n380 2.314e+00
*DRIVER U484:ZN
*CELL NAND2_X1
*C2_R1_C1 1.157e+00 6.236e-03 1.157e+00 
*LOADS
*RC U482:A2 1.443e-02
*END

*R_NET n381 2.314e+00
*DRIVER U485:ZN
*CELL NAND2_X1
*C2_R1_C1 1.157e+00 6.236e-03 1.157e+00 
*LOADS
*RC U484:A2 1.443e-02
*END

*R_NET n382 3.106e+00
*DRIVER U410:ZN
*CELL XNOR2_X1
*C2_R1_C1 1.553e+00 6.236e-03 1.553e+00 
*LOADS
*RC U409:A 1.937e-02
*END

*R_NET n383 7.070e+00
*DRIVER U379:ZN
*CELL XNOR2_X1
*C2_R1_C1 3.535e+00 2.308e-02 3.535e+00 
*LOADS
*RC U409:B 2.536e-02
*RC U517:A1 1.738e-02
*RC U515:A1 1.175e-02
*END

*R_NET n384 7.063e+00
*DRIVER U447:ZN
*CELL AND2_X1
*C2_R1_C1 3.532e+00 2.308e-02 3.532e+00 
*LOADS
*RC U410:A 2.446e-02
*RC U517:A2 1.836e-02
*RC U515:A2 1.152e-02
*END

*R_NET n385 5.478e+00
*DRIVER U668:ZN
*CELL AND2_X1
*C2_R1_C1 2.739e+00 1.407e-02 2.739e+00 
*LOADS
*RC U410:B 2.296e-02
*RC U516:A1 1.566e-02
*END

*R_NET n386 1.404e+00
*DRIVER U466:ZN
*CELL NAND2_X1
*C2_R1_C1 7.019e-01 6.236e-03 7.019e-01 
*LOADS
*RC U465:A1 8.754e-03
*END

*R_NET n387 1.465e+00
*DRIVER U467:ZN
*CELL NAND2_X1
*C2_R1_C1 7.324e-01 6.236e-03 7.324e-01 
*LOADS
*RC U465:A2 9.134e-03
*END

*R_NET n388 2.314e+00
*DRIVER U468:ZN
*CELL OR2_X1
*C2_R1_C1 1.157e+00 6.236e-03 1.157e+00 
*LOADS
*RC U467:A2 1.443e-02
*END

*R_NET n389 5.372e+00
*DRIVER U346:Z
*CELL XOR2_X1
*C2_R1_C1 2.686e+00 1.407e-02 2.686e+00 
*LOADS
*RC U401:A 2.213e-02
*RC U449:A1 1.566e-02
*END

*R_NET n390 3.224e+00
*DRIVER U402:ZN
*CELL XNOR2_X1
*C2_R1_C1 1.612e+00 6.236e-03 1.612e+00 
*LOADS
*RC U401:B 2.010e-02
*END

*R_NET n391 6.936e+00
*DRIVER U595:ZN
*CELL AND2_X1
*C2_R1_C1 3.468e+00 2.308e-02 3.468e+00 
*LOADS
*RC U402:A 2.446e-02
*RC U450:A1 1.738e-02
*RC U448:A2 1.152e-02
*END

*R_NET n392 7.198e+00
*DRIVER U661:ZN
*CELL NAND2_X1
*C2_R1_C1 3.599e+00 2.308e-02 3.599e+00 
*LOADS
*RC U402:B 2.536e-02
*RC U450:A2 1.836e-02
*RC U448:A1 1.175e-02
*END

*R_NET n393 3.081e+00
*DRIVER U377:ZN
*CELL XNOR2_X1
*C2_R1_C1 1.541e+00 6.236e-03 1.541e+00 
*LOADS
*RC U341:A 1.921e-02
*END

*R_NET n394 5.649e+00
*DRIVER U419:ZN
*CELL XNOR2_X1
*C2_R1_C1 2.825e+00 1.407e-02 2.825e+00 
*LOADS
*RC U597:A1 1.566e-02
*RC U341:B 2.408e-02
*END

*R_NET n395 6.965e+00
*DRIVER U617:ZN
*CELL NAND3_X1
*C2_R1_C1 3.482e+00 2.308e-02 3.482e+00 
*LOADS
*RC U377:A 2.446e-02
*RC U598:A1 1.738e-02
*RC U596:A1 1.175e-02
*END

*R_NET n396 7.169e+00
*DRIVER U666:ZN
*CELL NAND2_X1
*C2_R1_C1 3.584e+00 2.308e-02 3.584e+00 
*LOADS
*RC U377:B 2.536e-02
*RC U598:A2 1.836e-02
*RC U596:A2 1.152e-02
*END

*R_NET n397 3.081e+00
*DRIVER U345:Z
*CELL XOR2_X1
*C2_R1_C1 1.541e+00 6.236e-03 1.541e+00 
*LOADS
*RC U342:A 1.921e-02
*END

*R_NET n398 3.224e+00
*DRIVER U390:ZN
*CELL XNOR2_X1
*C2_R1_C1 1.612e+00 6.236e-03 1.612e+00 
*LOADS
*RC U389:B 2.010e-02
*END

*R_NET n399 2.187e+00
*DRIVER U432:ZN
*CELL NAND2_X1
*C2_R1_C1 1.093e+00 6.236e-03 1.093e+00 
*LOADS
*RC U431:A1 1.364e-02
*END

*R_NET n400 2.314e+00
*DRIVER U433:ZN
*CELL NAND2_X1
*C2_R1_C1 1.157e+00 6.236e-03 1.157e+00 
*LOADS
*RC U431:A2 1.443e-02
*END

*R_NET n401 5.649e+00
*DRIVER U680:ZN
*CELL AND2_X1
*C2_R1_C1 2.825e+00 1.407e-02 2.825e+00 
*LOADS
*RC U433:A1 1.566e-02
*RC U352:B 2.408e-02
*END

*R_NET n402 2.314e+00
*DRIVER U434:ZN
*CELL OR2_X1
*C2_R1_C1 1.157e+00 6.236e-03 1.157e+00 