*SPEF "IEEE 1481-1999"
*DESIGN "ripple_carry_adder32"
*DATE "Sat Aug 29 12:54:07 2020"
*VENDOR "SYNOPSYS INC"
*PROGRAM "Synopsys Design Compiler cmos"
*VERSION "N-2017.09-SP3"
*DESIGN_FLOW "SYNTHESIS"
*DIVIDER /
*DELIMITER :
*BUS_DELIMITER []
*T_UNIT 1.0 NS
*C_UNIT 0.0010 PF
*R_UNIT 1000.0 KOHM
*L_UNIT 1.0 HENRY

*PORTS

add1_i\[31\] I *L 0.000e+00 *S 0.000e+00 0.000e+00 
add1_i\[30\] I *L 0.000e+00 *S 0.000e+00 0.000e+00 
add1_i\[29\] I *L 0.000e+00 *S 0.000e+00 0.000e+00 
add1_i\[28\] I *L 0.000e+00 *S 0.000e+00 0.000e+00 
add1_i\[27\] I *L 0.000e+00 *S 0.000e+00 0.000e+00 
add1_i\[26\] I *L 0.000e+00 *S 0.000e+00 0.000e+00 
add1_i\[25\] I *L 0.000e+00 *S 0.000e+00 0.000e+00 
add1_i\[24\] I *L 0.000e+00 *S 0.000e+00 0.000e+00 
add1_i\[23\] I *L 0.000e+00 *S 0.000e+00 0.000e+00 
add1_i\[22\] I *L 0.000e+00 *S 0.000e+00 0.000e+00 
add1_i\[21\] I *L 0.000e+00 *S 0.000e+00 0.000e+00 
add1_i\[20\] I *L 0.000e+00 *S 0.000e+00 0.000e+00 
add1_i\[19\] I *L 0.000e+00 *S 0.000e+00 0.000e+00 
add1_i\[18\] I *L 0.000e+00 *S 0.000e+00 0.000e+00 
add1_i\[17\] I *L 0.000e+00 *S 0.000e+00 0.000e+00 
add1_i\[16\] I *L 0.000e+00 *S 0.000e+00 0.000e+00 
add1_i\[15\] I *L 0.000e+00 *S 0.000e+00 0.000e+00 
add1_i\[14\] I *L 0.000e+00 *S 0.000e+00 0.000e+00 
add1_i\[13\] I *L 0.000e+00 *S 0.000e+00 0.000e+00 
add1_i\[12\] I *L 0.000e+00 *S 0.000e+00 0.000e+00 
add1_i\[11\] I *L 0.000e+00 *S 0.000e+00 0.000e+00 
add1_i\[10\] I *L 0.000e+00 *S 0.000e+00 0.000e+00 
add1_i\[9\] I *L 0.000e+00 *S 0.000e+00 0.000e+00 
add1_i\[8\] I *L 0.000e+00 *S 0.000e+00 0.000e+00 
add1_i\[7\] I *L 0.000e+00 *S 0.000e+00 0.000e+00 
add1_i\[6\] I *L 0.000e+00 *S 0.000e+00 0.000e+00 
add1_i\[5\] I *L 0.000e+00 *S 0.000e+00 0.000e+00 
add1_i\[4\] I *L 0.000e+00 *S 0.000e+00 0.000e+00 
add1_i\[3\] I *L 0.000e+00 *S 0.000e+00 0.000e+00 
add1_i\[2\] I *L 0.000e+00 *S 0.000e+00 0.000e+00 
add1_i\[1\] I *L 0.000e+00 *S 0.000e+00 0.000e+00 
add1_i\[0\] I *L 0.000e+00 *S 0.000e+00 0.000e+00 
add2_i\[31\] I *L 0.000e+00 *S 0.000e+00 0.000e+00 
add2_i\[30\] I *L 0.000e+00 *S 0.000e+00 0.000e+00 
add2_i\[29\] I *L 0.000e+00 *S 0.000e+00 0.000e+00 
add2_i\[28\] I *L 0.000e+00 *S 0.000e+00 0.000e+00 
add2_i\[27\] I *L 0.000e+00 *S 0.000e+00 0.000e+00 
add2_i\[26\] I *L 0.000e+00 *S 0.000e+00 0.000e+00 
add2_i\[25\] I *L 0.000e+00 *S 0.000e+00 0.000e+00 
add2_i\[24\] I *L 0.000e+00 *S 0.000e+00 0.000e+00 
add2_i\[23\] I *L 0.000e+00 *S 0.000e+00 0.000e+00 
add2_i\[22\] I *L 0.000e+00 *S 0.000e+00 0.000e+00 
add2_i\[21\] I *L 0.000e+00 *S 0.000e+00 0.000e+00 
add2_i\[20\] I *L 0.000e+00 *S 0.000e+00 0.000e+00 
add2_i\[19\] I *L 0.000e+00 *S 0.000e+00 0.000e+00 
add2_i\[18\] I *L 0.000e+00 *S 0.000e+00 0.000e+00 
add2_i\[17\] I *L 0.000e+00 *S 0.000e+00 0.000e+00 
add2_i\[16\] I *L 0.000e+00 *S 0.000e+00 0.000e+00 
add2_i\[15\] I *L 0.000e+00 *S 0.000e+00 0.000e+00 
add2_i\[14\] I *L 0.000e+00 *S 0.000e+00 0.000e+00 
add2_i\[13\] I *L 0.000e+00 *S 0.000e+00 0.000e+00 
add2_i\[12\] I *L 0.000e+00 *S 0.000e+00 0.000e+00 
add2_i\[11\] I *L 0.000e+00 *S 0.000e+00 0.000e+00 
add2_i\[10\] I *L 0.000e+00 *S 0.000e+00 0.000e+00 
add2_i\[9\] I *L 0.000e+00 *S 0.000e+00 0.000e+00 
add2_i\[8\] I *L 0.000e+00 *S 0.000e+00 0.000e+00 
add2_i\[7\] I *L 0.000e+00 *S 0.000e+00 0.000e+00 
add2_i\[6\] I *L 0.000e+00 *S 0.000e+00 0.000e+00 
add2_i\[5\] I *L 0.000e+00 *S 0.000e+00 0.000e+00 
add2_i\[4\] I *L 0.000e+00 *S 0.000e+00 0.000e+00 
add2_i\[3\] I *L 0.000e+00 *S 0.000e+00 0.000e+00 
add2_i\[2\] I *L 0.000e+00 *S 0.000e+00 0.000e+00 
add2_i\[1\] I *L 0.000e+00 *S 0.000e+00 0.000e+00 
add2_i\[0\] I *L 0.000e+00 *S 0.000e+00 0.000e+00 
result_o\[32\] O *L 1.000e-01 *S 1.851e-03 1.752e-03 
result_o\[31\] O *L 1.000e-01 *S 2.769e-03 1.850e-03 
result_o\[30\] O *L 1.000e-01 *S 2.769e-03 1.850e-03 
result_o\[29\] O *L 1.000e-01 *S 2.769e-03 1.850e-03 
result_o\[28\] O *L 1.000e-01 *S 2.769e-03 1.850e-03 
result_o\[27\] O *L 1.000e-01 *S 2.769e-03 1.850e-03 
result_o\[26\] O *L 1.000e-01 *S 2.769e-03 1.850e-03 
result_o\[25\] O *L 1.000e-01 *S 2.769e-03 1.850e-03 
result_o\[24\] O *L 1.000e-01 *S 2.769e-03 1.850e-03 
result_o\[23\] O *L 1.000e-01 *S 2.769e-03 1.850e-03 
result_o\[22\] O *L 1.000e-01 *S 2.769e-03 1.850e-03 
result_o\[21\] O *L 1.000e-01 *S 2.769e-03 1.850e-03 
result_o\[20\] O *L 1.000e-01 *S 2.700e-03 1.836e-03 
result_o\[19\] O *L 1.000e-01 *S 2.769e-03 1.850e-03 
result_o\[18\] O *L 1.000e-01 *S 2.769e-03 1.850e-03 
result_o\[17\] O *L 1.000e-01 *S 2.700e-03 1.836e-03 
result_o\[16\] O *L 1.000e-01 *S 2.700e-03 1.836e-03 
result_o\[15\] O *L 1.000e-01 *S 2.769e-03 1.850e-03 
result_o\[14\] O *L 1.000e-01 *S 2.769e-03 1.850e-03 
result_o\[13\] O *L 1.000e-01 *S 2.700e-03 1.836e-03 
result_o\[12\] O *L 1.000e-01 *S 2.769e-03 1.850e-03 
result_o\[11\] O *L 1.000e-01 *S 2.769e-03 1.850e-03 
result_o\[10\] O *L 1.000e-01 *S 2.769e-03 1.850e-03 
result_o\[9\] O *L 1.000e-01 *S 2.700e-03 1.836e-03 
result_o\[8\] O *L 1.000e-01 *S 2.769e-03 1.850e-03 
result_o\[7\] O *L 1.000e-01 *S 2.700e-03 1.836e-03 
result_o\[6\] O *L 1.000e-01 *S 2.769e-03 1.850e-03 
result_o\[5\] O *L 1.000e-01 *S 2.769e-03 1.850e-03 
result_o\[4\] O *L 1.000e-01 *S 2.769e-03 1.850e-03 
result_o\[3\] O *L 1.000e-01 *S 2.769e-03 1.850e-03 
result_o\[2\] O *L 1.000e-01 *S 2.769e-03 1.850e-03 
result_o\[1\] O *L 1.000e-01 *S 2.769e-03 1.850e-03 
result_o\[0\] O *L 1.000e-01 *S 2.700e-03 1.836e-03 

*R_NET add1_i\[31\] 4.623e+00
*DRIVER add1_i\[31\]
*CELL NULL
*C2_R1_C1 2.312e+00 1.407e-02 2.312e+00 
*LOADS
*RC U742:A1 1.566e-02
*RC U675:A 1.686e-02
*END

*R_NET add1_i\[30\] 7.842e+00
*DRIVER add1_i\[30\]
*CELL NULL
*C2_R1_C1 3.921e+00 2.308e-02 3.921e+00 
*LOADS
*RC U638:A 1.869e-02
*RC U688:A 2.426e-02
*RC U791:A1 1.738e-02
*END

*R_NET add1_i\[29\] 1.034e+01
*DRIVER add1_i\[29\]
*CELL NULL
*C2_R1_C1 5.168e+00 3.293e-02 5.168e+00 
*LOADS
*RC U604:A3 1.899e-02
*RC U608:A3 1.970e-02
*RC U664:A 2.022e-02
*RC U690:A 2.618e-02
*END

*R_NET add1_i\[28\] 1.267e+01
*DRIVER add1_i\[28\]
*CELL NULL
*C2_R1_C1 6.337e+00 6.648e-02 6.337e+00 
*LOADS
*RC U608:A2 2.246e-02
*RC U647:A2 1.510e-02
*RC U646:A2 1.545e-02
*RC U645:A1 1.487e-02
*RC U648:A2 1.510e-02
*RC U649:A2 1.510e-02
*RC U691:A1 2.231e-02
*END

*R_NET add1_i\[27\] 2.357e+00
*DRIVER add1_i\[27\]
*CELL NULL
*C2_R1_C1 1.179e+00 6.236e-03 1.179e+00 
*LOADS
*RC U709:A 1.470e-02
*END

*R_NET add1_i\[26\] 4.623e+00
*DRIVER add1_i\[26\]
*CELL NULL
*C2_R1_C1 2.312e+00 1.407e-02 2.312e+00 
*LOADS
*RC U758:A1 1.566e-02
*RC U705:A 1.686e-02
*END

*R_NET add1_i\[25\] 7.213e+00
*DRIVER add1_i\[25\]
*CELL NULL
*C2_R1_C1 3.606e+00 2.308e-02 3.606e+00 
*LOADS
*RC U620:B 2.659e-02
*RC U768:A2 1.152e-02
*RC U767:A1 1.738e-02
*END

*R_NET add1_i\[24\] 8.062e+00
*DRIVER add1_i\[24\]
*CELL NULL
*C2_R1_C1 4.031e+00 2.308e-02 4.031e+00 
*LOADS
*RC U613:A2 1.806e-02
*RC U778:A1 1.738e-02
*RC U578:B 2.659e-02
*END

*R_NET add1_i\[23\] 4.751e+00
*DRIVER add1_i\[23\]
*CELL NULL
*C2_R1_C1 2.375e+00 1.407e-02 2.375e+00 
*LOADS
*RC U744:A2 1.656e-02
*RC U679:A 1.686e-02
*END

*R_NET add1_i\[22\] 5.777e+00
*DRIVER add1_i\[22\]
*CELL NULL
*C2_R1_C1 2.888e+00 1.407e-02 2.888e+00 
*LOADS
*RC U619:B 2.408e-02
*RC U751:A2 1.656e-02
*END

*R_NET add1_i\[21\] 4.623e+00
*DRIVER add1_i\[21\]
*CELL NULL
*C2_R1_C1 2.312e+00 1.407e-02 2.312e+00 
*LOADS
*RC U670:A 1.686e-02
*RC U733:A1 1.566e-02
*END

*R_NET add1_i\[20\] 7.041e+00
*DRIVER add1_i\[20\]
*CELL NULL
*C2_R1_C1 3.521e+00 2.308e-02 3.521e+00 
*LOADS
*RC U627:B 2.536e-02
*RC U715:A2 1.152e-02
*RC U770:A1 1.738e-02
*END

*R_NET add1_i\[19\] 4.751e+00
*DRIVER add1_i\[19\]
*CELL NULL
*C2_R1_C1 2.375e+00 1.407e-02 2.375e+00 
*LOADS
*RC U797:A2 1.656e-02
*RC U674:A 1.686e-02
*END

*R_NET add1_i\[18\] 7.785e+00
*DRIVER add1_i\[18\]
*CELL NULL
*C2_R1_C1 3.893e+00 2.308e-02 3.893e+00 
*LOADS
*RC U642:A2 1.806e-02
*RC U699:A 2.446e-02
*RC U759:A1 1.738e-02
*END

*R_NET add1_i\[17\] 4.730e+00
*DRIVER add1_i\[17\]
*CELL NULL
*C2_R1_C1 2.365e+00 1.407e-02 2.365e+00 
*LOADS
*RC U615:A3 1.641e-02
*RC U703:A 1.686e-02
*END

*R_NET add1_i\[16\] 7.041e+00
*DRIVER add1_i\[16\]
*CELL NULL
*C2_R1_C1 3.521e+00 2.308e-02 3.521e+00 
*LOADS
*RC U625:B 2.536e-02
*RC U714:A2 1.152e-02
*RC U781:A1 1.738e-02
*END

*R_NET add1_i\[15\] 4.751e+00
*DRIVER add1_i\[15\]
*CELL NULL
*C2_R1_C1 2.375e+00 1.407e-02 2.375e+00 
*LOADS
*RC U678:A 1.686e-02
*RC U752:A2 1.656e-02
*END

*R_NET add1_i\[14\] 8.144e+00
*DRIVER add1_i\[14\]
*CELL NULL
*C2_R1_C1 4.072e+00 2.308e-02 4.072e+00 
*LOADS
*RC U668:A 1.869e-02
*RC U800:A1 1.738e-02
*RC U593:B 2.659e-02
*END

*R_NET add1_i\[13\] 5.255e+00
*DRIVER add1_i\[13\]
*CELL NULL
*C2_R1_C1 2.628e+00 2.308e-02 2.628e+00 
*LOADS
*RC U658:A2 1.152e-02
*RC U655:A2 1.152e-02
*RC U753:A1 1.738e-02
*END

*R_NET add1_i\[12\] 5.649e+00
*DRIVER add1_i\[12\]
*CELL NULL
*C2_R1_C1 2.825e+00 1.407e-02 2.825e+00 
*LOADS
*RC U618:B 2.408e-02
*RC U735:A1 1.566e-02
*END

*R_NET add1_i\[11\] 8.062e+00
*DRIVER add1_i\[11\]
*CELL NULL
*C2_R1_C1 4.031e+00 2.308e-02 4.031e+00 
*LOADS
*RC U610:A2 1.806e-02
*RC U783:A1 1.738e-02
*RC U597:B 2.659e-02
*END

*R_NET add1_i\[10\] 8.272e+00
*DRIVER add1_i\[10\]
*CELL NULL
*C2_R1_C1 4.136e+00 2.308e-02 4.136e+00 
*LOADS
*RC U605:B 2.659e-02
*RC U745:A2 1.836e-02
*RC U671:A 1.869e-02
*END

*R_NET add1_i\[9\] 4.751e+00
*DRIVER add1_i\[9\]
*CELL NULL
*C2_R1_C1 2.375e+00 1.407e-02 2.375e+00 
*LOADS
*RC U762:A2 1.656e-02
*RC U684:A 1.686e-02
*END

*R_NET add1_i\[8\] 4.623e+00
*DRIVER add1_i\[8\]
*CELL NULL
*C2_R1_C1 2.312e+00 1.407e-02 2.312e+00 
*LOADS
*RC U692:A 1.686e-02
*RC U763:A1 1.566e-02
*END

*R_NET add1_i\[7\] 4.573e+00
*DRIVER add1_i\[7\]
*CELL NULL
*C2_R1_C1 2.287e+00 1.407e-02 2.287e+00 
*LOADS
*RC U698:A 1.686e-02
*RC U805:A1 1.538e-02
*END

*R_NET add1_i\[6\] 3.901e+00
*DRIVER add1_i\[6\]
*CELL NULL
*C2_R1_C1 1.951e+00 1.407e-02 1.951e+00 
*LOADS
*RC U654:A2 1.058e-02
*RC U653:A 1.686e-02
*END

*R_NET add1_i\[5\] 3.692e+00
*DRIVER add1_i\[5\]
*CELL NULL
*C2_R1_C1 1.846e+00 1.407e-02 1.846e+00 
*LOADS
*RC U686:A2 1.031e-02
*RC U748:A1 1.566e-02
*END

*R_NET add1_i\[4\] 4.623e+00
*DRIVER add1_i\[4\]
*CELL NULL
*C2_R1_C1 2.312e+00 1.407e-02 2.312e+00 
*LOADS
*RC U630:A 1.686e-02
*RC U731:A1 1.566e-02
*END

*R_NET add1_i\[3\] 8.144e+00
*DRIVER add1_i\[3\]
*CELL NULL
*C2_R1_C1 4.072e+00 2.308e-02 4.072e+00 
*LOADS
*RC U607:A 1.869e-02
*RC U786:A1 1.738e-02
*RC U568:B 2.659e-02
*END

*R_NET add1_i\[2\] 5.649e+00
*DRIVER add1_i\[2\]
*CELL NULL
*C2_R1_C1 2.825e+00 1.407e-02 2.825e+00 
*LOADS
*RC U729:A1 1.566e-02
*RC U601:B 2.408e-02
*END

*R_NET add1_i\[1\] 7.213e+00
*DRIVER add1_i\[1\]
*CELL NULL
*C2_R1_C1 3.606e+00 2.308e-02 3.606e+00 
*LOADS
*RC U788:A2 1.152e-02
*RC U787:A1 1.738e-02
*RC U586:B 2.659e-02
*END

*R_NET add1_i\[0\] 5.641e+00
*DRIVER add1_i\[0\]
*CELL NULL
*C2_R1_C1 2.821e+00 1.407e-02 2.821e+00 
*LOADS
*RC U623:B 2.296e-02
*RC U547:A2 1.681e-02
*END

*R_NET add2_i\[31\] 5.649e+00
*DRIVER add2_i\[31\]
*CELL NULL
*C2_R1_C1 2.825e+00 1.407e-02 2.825e+00 
*LOADS
*RC U628:B 2.408e-02
*RC U789:A1 1.566e-02
*END

*R_NET add2_i\[30\] 5.777e+00
*DRIVER add2_i\[30\]
*CELL NULL
*C2_R1_C1 2.888e+00 1.407e-02 2.888e+00 
*LOADS
*RC U727:A2 1.656e-02
*RC U688:B 2.408e-02
*END

*R_NET add2_i\[29\] 5.777e+00
*DRIVER add2_i\[29\]
*CELL NULL
*C2_R1_C1 2.888e+00 1.407e-02 2.888e+00 
*LOADS
*RC U680:A2 1.656e-02
*RC U690:B 2.408e-02
*END

*R_NET add2_i\[28\] 9.984e+00
*DRIVER add2_i\[28\]
*CELL NULL
*C2_R1_C1 4.992e+00 3.293e-02 4.992e+00 
*LOADS
*RC U604:A2 1.837e-02
*RC U757:A1 1.882e-02
*RC U765:A1 1.882e-02
*RC U572:A 2.618e-02
*END

*R_NET add2_i\[27\] 5.347e+00
*DRIVER add2_i\[27\]
*CELL NULL
*C2_R1_C1 2.674e+00 1.407e-02 2.674e+00 
*LOADS
*RC U660:A1 1.566e-02
*RC U573:A 2.195e-02
*END

*R_NET add2_i\[26\] 5.372e+00
*DRIVER add2_i\[26\]
*CELL NULL
*C2_R1_C1 2.686e+00 1.407e-02 2.686e+00 
*LOADS
*RC U682:A1 1.566e-02
*RC U685:A 2.213e-02
*END

*R_NET add2_i\[25\] 8.101e+00
*DRIVER add2_i\[25\]
*CELL NULL
*C2_R1_C1 4.051e+00 2.308e-02 4.051e+00 
*LOADS
*RC U696:A1 1.738e-02
*RC U793:A2 1.836e-02
*RC U575:B 2.659e-02
*END

*R_NET add2_i\[24\] 5.347e+00
*DRIVER add2_i\[24\]
*CELL NULL
*C2_R1_C1 2.674e+00 1.407e-02 2.674e+00 
*LOADS
*RC U721:A1 1.566e-02
*RC U578:A 2.195e-02
*END

*R_NET add2_i\[23\] 7.799e+00
*DRIVER add2_i\[23\]
*CELL NULL
*C2_R1_C1 3.900e+00 2.308e-02 3.900e+00 
*LOADS
*RC U665:A2 1.836e-02
*RC U794:A1 1.738e-02
*RC U579:A 2.426e-02
*END

*R_NET add2_i\[22\] 5.347e+00
*DRIVER add2_i\[22\]
*CELL NULL
*C2_R1_C1 2.674e+00 1.407e-02 2.674e+00 
*LOADS
*RC U795:A1 1.566e-02
*RC U581:A 2.195e-02
*END

*R_NET add2_i\[21\] 5.347e+00
*DRIVER add2_i\[21\]
*CELL NULL
*C2_R1_C1 2.674e+00 1.407e-02 2.674e+00 
*LOADS
*RC U796:A1 1.566e-02
*RC U583:A 2.195e-02
*END

*R_NET add2_i\[20\] 5.500e+00
*DRIVER add2_i\[20\]
*CELL NULL
*C2_R1_C1 2.750e+00 1.407e-02 2.750e+00 
*LOADS
*RC U693:A 2.213e-02
*RC U741:A2 1.656e-02
*END

*R_NET add2_i\[19\] 5.649e+00
*DRIVER add2_i\[19\]
*CELL NULL
*C2_R1_C1 2.825e+00 1.407e-02 2.825e+00 
*LOADS
*RC U780:A1 1.566e-02
*RC U587:B 2.408e-02
*END

*R_NET add2_i\[18\] 5.606e+00
*DRIVER add2_i\[18\]
*CELL NULL
*C2_R1_C1 2.803e+00 1.407e-02 2.803e+00 
*LOADS
*RC U734:A2 1.656e-02
*RC U699:B 2.296e-02
*END

*R_NET add2_i\[17\] 6.836e+00
*DRIVER add2_i\[17\]
*CELL NULL
*C2_R1_C1 3.418e+00 2.308e-02 3.418e+00 
*LOADS
*RC U626:A1 1.076e-02
*RC U700:A 2.446e-02
*RC U771:A1 1.738e-02
*END

*R_NET add2_i\[16\] 7.841e+00
*DRIVER add2_i\[16\]
*CELL NULL
*C2_R1_C1 3.920e+00 2.308e-02 3.920e+00 
*LOADS
*RC U615:A2 1.751e-02
*RC U702:A 2.446e-02
*RC U737:A2 1.836e-02
*END

*R_NET add2_i\[15\] 5.347e+00
*DRIVER add2_i\[15\]
*CELL NULL
*C2_R1_C1 2.674e+00 1.407e-02 2.674e+00 
*LOADS
*RC U799:A1 1.566e-02
*RC U590:A 2.195e-02
*END

*R_NET add2_i\[14\] 5.475e+00
*DRIVER add2_i\[14\]
*CELL NULL
*C2_R1_C1 2.737e+00 1.407e-02 2.737e+00 
*LOADS
*RC U717:A2 1.656e-02
*RC U593:A 2.195e-02
*END

*R_NET add2_i\[13\] 7.952e+00
*DRIVER add2_i\[13\]
*CELL NULL
*C2_R1_C1 3.976e+00 2.308e-02 3.976e+00 
*LOADS
*RC U725:A2 1.836e-02
*RC U667:A2 1.836e-02
*RC U701:A 2.446e-02
*END

*R_NET add2_i\[12\] 5.649e+00
*DRIVER add2_i\[12\]
*CELL NULL
*C2_R1_C1 2.825e+00 1.407e-02 2.825e+00 
*LOADS
*RC U801:A1 1.566e-02
*RC U594:B 2.408e-02
*END

*R_NET add2_i\[11\] 5.475e+00
*DRIVER add2_i\[11\]
*CELL NULL
*C2_R1_C1 2.737e+00 1.407e-02 2.737e+00 
*LOADS
*RC U718:A2 1.656e-02
*RC U597:A 2.195e-02
*END

*R_NET add2_i\[10\] 8.101e+00
*DRIVER add2_i\[10\]
*CELL NULL
*C2_R1_C1 4.051e+00 2.308e-02 4.051e+00 
*LOADS
*RC U635:A2 1.836e-02
*RC U802:A1 1.738e-02
*RC U598:B 2.659e-02
*END

*R_NET add2_i\[9\] 5.372e+00
*DRIVER add2_i\[9\]
*CELL NULL
*C2_R1_C1 2.686e+00 1.407e-02 2.686e+00 
*LOADS
*RC U708:A 2.213e-02
*RC U784:A1 1.566e-02
*END

*R_NET add2_i\[8\] 5.372e+00
*DRIVER add2_i\[8\]
*CELL NULL
*C2_R1_C1 2.686e+00 1.407e-02 2.686e+00 
*LOADS
*RC U694:A1 1.566e-02
*RC U704:A 2.213e-02
*END

*R_NET add2_i\[7\] 7.697e+00
*DRIVER add2_i\[7\]
*CELL NULL
*C2_R1_C1 3.848e+00 2.308e-02 3.848e+00 
*LOADS
*RC U785:A1 1.738e-02
*RC U695:A1 1.738e-02
*RC U706:A 2.446e-02
*END

*R_NET add2_i\[6\] 1.025e+01
*DRIVER add2_i\[6\]
*CELL NULL
*C2_R1_C1 5.126e+00 3.293e-02 5.126e+00 
*LOADS
*RC U617:A3 1.970e-02
*RC U697:A1 1.882e-02
*RC U805:A3 1.970e-02
*RC U564:A 2.618e-02
*END

*R_NET add2_i\[5\] 7.016e+00
*DRIVER add2_i\[5\]
*CELL NULL
*C2_R1_C1 3.508e+00 2.308e-02 3.508e+00 
*LOADS
*RC U654:A1 1.136e-02
*RC U722:A2 1.836e-02
*RC U565:A 2.426e-02
*END

*R_NET add2_i\[4\] 5.475e+00
*DRIVER add2_i\[4\]
*CELL NULL
*C2_R1_C1 2.737e+00 1.407e-02 2.737e+00 
*LOADS
*RC U624:A 2.195e-02
*RC U807:A2 1.656e-02
*END

*R_NET add2_i\[3\] 5.475e+00
*DRIVER add2_i\[3\]
*CELL NULL
*C2_R1_C1 2.737e+00 1.407e-02 2.737e+00 
*LOADS
*RC U724:A2 1.656e-02
*RC U568:A 2.195e-02
*END

*R_NET add2_i\[2\] 5.649e+00
*DRIVER add2_i\[2\]
*CELL NULL
*C2_R1_C1 2.825e+00 1.407e-02 2.825e+00 
*LOADS
*RC U808:A1 1.566e-02
*RC U571:B 2.408e-02
*END

*R_NET add2_i\[1\] 5.475e+00
*DRIVER add2_i\[1\]
*CELL NULL
*C2_R1_C1 2.737e+00 1.407e-02 2.737e+00 
*LOADS
*RC U739:A2 1.656e-02
*RC U586:A 2.195e-02
*END

*R_NET add2_i\[0\] 5.655e+00
*DRIVER add2_i\[0\]
*CELL NULL
*C2_R1_C1 2.828e+00 1.407e-02 2.828e+00 
*LOADS
*RC U623:A 2.213e-02
*RC U547:A1 1.765e-02
*END

*R_NET result_o\[32\] 4.097e-01
*DRIVER U776:ZN
*CELL NAND2_X1
*C2_R1_C1 2.049e-01 6.236e-03 2.049e-01 
*LOADS
*RC result_o\[32\] 2.555e-03
*END

*R_NET result_o\[31\] 4.097e-01
*DRIVER U628:Z
*CELL XOR2_X1
*C2_R1_C1 2.049e-01 6.236e-03 2.049e-01 
*LOADS
*RC result_o\[31\] 2.555e-03
*END

*R_NET result_o\[30\] 4.097e-01
*DRIVER U687:Z
*CELL XOR2_X1
*C2_R1_C1 2.049e-01 6.236e-03 2.049e-01 
*LOADS
*RC result_o\[30\] 2.555e-03
*END

*R_NET result_o\[29\] 4.097e-01
*DRIVER U689:Z
*CELL XOR2_X1
*C2_R1_C1 2.049e-01 6.236e-03 2.049e-01 
*LOADS
*RC result_o\[29\] 2.555e-03
*END

*R_NET result_o\[28\] 4.097e-01
*DRIVER U572:Z
*CELL XOR2_X1
*C2_R1_C1 2.049e-01 6.236e-03 2.049e-01 
*LOADS
*RC result_o\[28\] 2.555e-03
*END

*R_NET result_o\[27\] 4.097e-01
*DRIVER U573:Z
*CELL XOR2_X1
*C2_R1_C1 2.049e-01 6.236e-03 2.049e-01 
*LOADS
*RC result_o\[27\] 2.555e-03
*END

*R_NET result_o\[26\] 4.097e-01
*DRIVER U574:Z
*CELL XOR2_X1
*C2_R1_C1 2.049e-01 6.236e-03 2.049e-01 
*LOADS
*RC result_o\[26\] 2.555e-03
*END

*R_NET result_o\[25\] 4.097e-01
*DRIVER U575:Z
*CELL XOR2_X1
*C2_R1_C1 2.049e-01 6.236e-03 2.049e-01 
*LOADS
*RC result_o\[25\] 2.555e-03
*END

*R_NET result_o\[24\] 4.097e-01
*DRIVER U577:Z
*CELL XOR2_X1
*C2_R1_C1 2.049e-01 6.236e-03 2.049e-01 
*LOADS
*RC result_o\[24\] 2.555e-03
*END

*R_NET result_o\[23\] 4.097e-01
*DRIVER U579:Z
*CELL XOR2_X1
*C2_R1_C1 2.049e-01 6.236e-03 2.049e-01 
*LOADS
*RC result_o\[23\] 2.555e-03
*END

*R_NET result_o\[22\] 4.097e-01
*DRIVER U581:Z
*CELL XOR2_X1
*C2_R1_C1 2.049e-01 6.236e-03 2.049e-01 
*LOADS
*RC result_o\[22\] 2.555e-03
*END

*R_NET result_o\[21\] 4.097e-01
*DRIVER U583:Z
*CELL XOR2_X1
*C2_R1_C1 2.049e-01 6.236e-03 2.049e-01 
*LOADS
*RC result_o\[21\] 2.555e-03
*END

*R_NET result_o\[20\] 4.097e-01
*DRIVER U693:ZN
*CELL XNOR2_X1
*C2_R1_C1 2.049e-01 6.236e-03 2.049e-01 
*LOADS
*RC result_o\[20\] 2.555e-03
*END

*R_NET result_o\[19\] 4.097e-01
*DRIVER U587:Z
*CELL XOR2_X1
*C2_R1_C1 2.049e-01 6.236e-03 2.049e-01 
*LOADS
*RC result_o\[19\] 2.555e-03
*END

*R_NET result_o\[18\] 4.097e-01
*DRIVER U589:Z
*CELL XOR2_X1
*C2_R1_C1 2.049e-01 6.236e-03 2.049e-01 
*LOADS
*RC result_o\[18\] 2.555e-03
*END

*R_NET result_o\[17\] 4.097e-01
*DRIVER U700:ZN
*CELL XNOR2_X1
*C2_R1_C1 2.049e-01 6.236e-03 2.049e-01 
*LOADS
*RC result_o\[17\] 2.555e-03
*END

*R_NET result_o\[16\] 4.097e-01
*DRIVER U702:ZN
*CELL XNOR2_X1
*C2_R1_C1 2.049e-01 6.236e-03 2.049e-01 
*LOADS
*RC result_o\[16\] 2.555e-03
*END

*R_NET result_o\[15\] 4.097e-01
*DRIVER U590:Z
*CELL XOR2_X1
*C2_R1_C1 2.049e-01 6.236e-03 2.049e-01 
*LOADS
*RC result_o\[15\] 2.555e-03
*END

*R_NET result_o\[14\] 4.097e-01
*DRIVER U592:Z
*CELL XOR2_X1
*C2_R1_C1 2.049e-01 6.236e-03 2.049e-01 
*LOADS
*RC result_o\[14\] 2.555e-03
*END

*R_NET result_o\[13\] 4.097e-01
*DRIVER U701:ZN
*CELL XNOR2_X1
*C2_R1_C1 2.049e-01 6.236e-03 2.049e-01 
*LOADS
*RC result_o\[13\] 2.555e-03
*END

*R_NET result_o\[12\] 4.097e-01
*DRIVER U594:Z
*CELL XOR2_X1
*C2_R1_C1 2.049e-01 6.236e-03 2.049e-01 
*LOADS
*RC result_o\[12\] 2.555e-03
*END

*R_NET result_o\[11\] 4.097e-01
*DRIVER U596:Z
*CELL XOR2_X1
*C2_R1_C1 2.049e-01 6.236e-03 2.049e-01 
*LOADS
*RC result_o\[11\] 2.555e-03
*END

*R_NET result_o\[10\] 4.097e-01
*DRIVER U598:Z
*CELL XOR2_X1
*C2_R1_C1 2.049e-01 6.236e-03 2.049e-01 
*LOADS
*RC result_o\[10\] 2.555e-03
*END

*R_NET result_o\[9\] 4.097e-01
*DRIVER U708:ZN
*CELL XNOR2_X1
*C2_R1_C1 2.049e-01 6.236e-03 2.049e-01 
*LOADS
*RC result_o\[9\] 2.555e-03
*END

*R_NET result_o\[8\] 4.097e-01
*DRIVER U562:Z
*CELL XOR2_X1
*C2_R1_C1 2.049e-01 6.236e-03 2.049e-01 
*LOADS
*RC result_o\[8\] 2.555e-03
*END

*R_NET result_o\[7\] 4.097e-01
*DRIVER U706:ZN
*CELL XNOR2_X1
*C2_R1_C1 2.049e-01 6.236e-03 2.049e-01 
*LOADS
*RC result_o\[7\] 2.555e-03
*END

*R_NET result_o\[6\] 4.097e-01
*DRIVER U564:Z
*CELL XOR2_X1
*C2_R1_C1 2.049e-01 6.236e-03 2.049e-01 
*LOADS
*RC result_o\[6\] 2.555e-03
*END

*R_NET result_o\[5\] 4.097e-01
*DRIVER U565:Z
*CELL XOR2_X1
*C2_R1_C1 2.049e-01 6.236e-03 2.049e-01 
*LOADS
*RC result_o\[5\] 2.555e-03
*END

*R_NET result_o\[4\] 4.097e-01
*DRIVER U624:Z
*CELL XOR2_X1
*C2_R1_C1 2.049e-01 6.236e-03 2.049e-01 
*LOADS
*RC result_o\[4\] 2.555e-03
*END

*R_NET result_o\[3\] 4.097e-01
*DRIVER U567:Z
*CELL XOR2_X1
*C2_R1_C1 2.049e-01 6.236e-03 2.049e-01 
*LOADS
*RC result_o\[3\] 2.555e-03
*END

*R_NET result_o\[2\] 4.097e-01
*DRIVER U571:Z
*CELL XOR2_X1
*C2_R1_C1 2.049e-01 6.236e-03 2.049e-01 
*LOADS
*RC result_o\[2\] 2.555e-03
*END

*R_NET result_o\[1\] 4.097e-01
*DRIVER U585:Z
*CELL XOR2_X1
*C2_R1_C1 2.049e-01 6.236e-03 2.049e-01 
*LOADS
*RC result_o\[1\] 2.555e-03
*END

*R_NET result_o\[0\] 4.097e-01
*DRIVER U623:ZN
*CELL XNOR2_X1
*C2_R1_C1 2.049e-01 6.236e-03 2.049e-01 
*LOADS
*RC result_o\[0\] 2.555e-03
*END

*R_NET n796 3.670e+00
*DRIVER U792:ZN
*CELL INV_X1
*C2_R1_C1 1.835e+00 1.407e-02 1.835e+00 
*LOADS
*RC U602:A1 1.566e-02
*RC U726:A1 1.015e-02
*END

*R_NET n797 7.357e+00
*DRIVER U709:ZN
*CELL INV_X1
*C2_R1_C1 3.678e+00 2.308e-02 3.678e+00 
*LOADS
*RC U657:A1 1.912e-02
*RC U659:A1 1.912e-02
*RC U732:A2 1.836e-02
*END

*R_NET n798 5.495e+00
*DRIVER U705:ZN
*CELL INV_X1
*C2_R1_C1 2.747e+00 1.407e-02 2.747e+00 
*LOADS
*RC U683:A2 1.578e-02
*RC U685:B 2.296e-02
*END

*R_NET n799 6.301e+00
*DRIVER U798:ZN
*CELL INV_X1
*C2_R1_C1 3.150e+00 2.308e-02 3.150e+00 
*LOADS
*RC U626:A3 1.175e-02
*RC U764:A2 1.836e-02
*RC U760:A2 1.836e-02
*END

*R_NET n800 3.670e+00
*DRIVER U703:ZN
*CELL INV_X1
*C2_R1_C1 1.835e+00 1.407e-02 1.835e+00 
*LOADS
*RC U609:A1 1.538e-02
*RC U632:A1 1.051e-02
*END

*R_NET n801 4.486e+00
*DRIVER U684:ZN
*CELL INV_X1
*C2_R1_C1 2.243e+00 1.407e-02 2.243e+00 
*LOADS
*RC U774:A2 1.578e-02
*RC U662:A2 1.578e-02
*END

*R_NET n802 5.495e+00
*DRIVER U692:ZN
*CELL INV_X1
*C2_R1_C1 2.747e+00 1.407e-02 2.747e+00 
*LOADS
*RC U704:B 2.296e-02
*RC U747:A2 1.578e-02
*END

*R_NET n803 6.049e+00
*DRIVER U698:ZN
*CELL INV_X1
*C2_R1_C1 3.025e+00 2.308e-02 3.025e+00 
*LOADS
*RC U806:A2 1.152e-02
*RC U804:A2 1.751e-02
*RC U803:A2 1.751e-02
*END

*R_NET n808 3.224e+00
*DRIVER U777:ZN
*CELL NAND2_X1
*C2_R1_C1 1.612e+00 6.236e-03 1.612e+00 
*LOADS
*RC U708:B 2.010e-02
*END

*R_NET n809 2.314e+00
*DRIVER U774:ZN
*CELL NAND3_X1
*C2_R1_C1 1.157e+00 6.236e-03 1.157e+00 
*LOADS
*RC U784:A2 1.443e-02
*END

*R_NET n810 4.580e+00
*DRIVER U762:ZN
*CELL NAND2_X1
*C2_R1_C1 2.290e+00 1.407e-02 2.290e+00 
*LOADS
*RC U746:A1 1.566e-02
*RC U777:A2 1.656e-02
*END

*R_NET n811 2.314e+00
*DRIVER U775:ZN
*CELL NAND2_X1
*C2_R1_C1 1.157e+00 6.236e-03 1.157e+00 
*LOADS
*RC U763:A2 1.443e-02
*END

*R_NET n812 3.383e+00
*DRIVER U704:ZN
*CELL XNOR2_X1
*C2_R1_C1 1.692e+00 6.236e-03 1.692e+00 
*LOADS
*RC U562:B 2.110e-02
*END

*R_NET n814 4.580e+00
*DRIVER U804:ZN
*CELL NAND3_X1
*C2_R1_C1 2.290e+00 1.407e-02 2.290e+00 
*LOADS
*RC U785:A2 1.656e-02
*RC U707:A1 1.566e-02
*END

*R_NET n815 9.378e+00
*DRIVER U639:ZN
*CELL AND2_X1
*C2_R1_C1 4.689e+00 3.293e-02 4.689e+00 
*LOADS
*RC U707:A2 1.987e-02
*RC U634:A1 1.882e-02
*RC U747:A3 1.970e-02
*RC U775:A1 1.882e-02
*END

*R_NET n816 5.666e+00
*DRIVER U640:ZN
*CELL AND2_X1
*C2_R1_C1 2.833e+00 1.407e-02 2.833e+00 
*LOADS
*RC U805:A2 1.578e-02
*RC U564:B 2.408e-02
*END

*R_NET n817 4.866e+00
*DRIVER U728:ZN
*CELL AND2_X1
*C2_R1_C1 2.433e+00 1.407e-02 2.433e+00 
*LOADS
*RC U643:A1 1.015e-02
*RC U565:B 2.408e-02
*END

*R_NET n818 5.649e+00
*DRIVER U669:ZN
*CELL XNOR2_X1
*C2_R1_C1 2.825e+00 1.407e-02 2.825e+00 
*LOADS
*RC U624:B 2.408e-02
*RC U807:A1 1.566e-02
*END

*R_NET n819 5.475e+00
*DRIVER U755:ZN
*CELL NAND2_X1
*C2_R1_C1 2.737e+00 1.407e-02 2.737e+00 
*LOADS
*RC U786:A2 1.656e-02
*RC U567:A 2.195e-02
*END

*R_NET n820 3.383e+00
*DRIVER U568:Z
*CELL XOR2_X1
*C2_R1_C1 1.692e+00 6.236e-03 1.692e+00 
*LOADS
*RC U567:B 2.110e-02
*END

*R_NET n821 2.187e+00
*DRIVER U742:ZN
*CELL NAND2_X1
*C2_R1_C1 1.093e+00 6.236e-03 1.093e+00 
*LOADS
*RC U776:A1 1.364e-02
*END

*R_NET n822 2.314e+00
*DRIVER U789:ZN
*CELL NAND2_X1
*C2_R1_C1 1.157e+00 6.236e-03 1.157e+00 
*LOADS
*RC U776:A2 1.443e-02
*END

*R_NET n823 5.475e+00
*DRIVER U677:ZN
*CELL XNOR2_X1
*C2_R1_C1 2.737e+00 1.407e-02 2.737e+00 
*LOADS
*RC U628:A 2.195e-02
*RC U789:A2 1.656e-02
*END

*R_NET n824 5.500e+00
*DRIVER U723:ZN
*CELL NAND2_X1
*C2_R1_C1 2.750e+00 1.407e-02 2.750e+00 
*LOADS
*RC U742:A2 1.656e-02
*RC U677:A 2.213e-02
*END

*R_NET n825 2.187e+00
*DRIVER U791:ZN
*CELL NAND2_X1
*C2_R1_C1 1.093e+00 6.236e-03 1.093e+00 
*LOADS
*RC U723:A1 1.364e-02
*END

*R_NET n826 2.314e+00
*DRIVER U727:ZN
*CELL NAND2_X1
*C2_R1_C1 1.157e+00 6.236e-03 1.157e+00 
*LOADS
*RC U723:A2 1.443e-02
*END

*R_NET n827 2.187e+00
*DRIVER U616:ZN
*CELL NAND4_X1
*C2_R1_C1 1.093e+00 6.236e-03 1.093e+00 
*LOADS
*RC U727:A1 1.364e-02
*END

*R_NET n828 5.777e+00
*DRIVER U756:ZN
*CELL NAND2_X1
*C2_R1_C1 2.888e+00 1.407e-02 2.888e+00 
*LOADS
*RC U687:B 2.408e-02
*RC U791:A2 1.656e-02
*END

*R_NET n830 4.682e+00
*DRIVER U680:ZN
*CELL NAND2_X1
*C2_R1_C1 2.341e+00 1.407e-02 2.341e+00 
*LOADS
*RC U616:A4 1.638e-02
*RC U756:A2 1.656e-02
*END

*R_NET n831 2.187e+00
*DRIVER U663:ZN
*CELL AND2_X1
*C2_R1_C1 1.093e+00 6.236e-03 1.093e+00 
*LOADS
*RC U756:A1 1.364e-02
*END

*R_NET n832 3.383e+00
*DRIVER U749:ZN
*CELL NAND2_X1
*C2_R1_C1 1.692e+00 6.236e-03 1.692e+00 
*LOADS
*RC U689:B 2.110e-02
*END

*R_NET n833 2.187e+00
*DRIVER U681:ZN
*CELL NAND3_X1
*C2_R1_C1 1.093e+00 6.236e-03 1.093e+00 
*LOADS
*RC U680:A1 1.364e-02
*END

*R_NET n834 4.403e+00
*DRIVER U691:ZN
*CELL NAND2_X1
*C2_R1_C1 2.201e+00 1.407e-02 2.201e+00 
*LOADS
*RC U681:A1 1.538e-02
*RC U749:A1 1.566e-02
*END

*R_NET n835 2.294e+00
*DRIVER U765:ZN
*CELL NAND2_X1
*C2_R1_C1 1.147e+00 6.236e-03 1.147e+00 
*LOADS
*RC U681:A3 1.430e-02
*END

*R_NET n836 2.100e+00
*DRIVER U649:ZN
*CELL OR3_X1
*C2_R1_C1 1.050e+00 6.236e-03 1.050e+00 
*LOADS
*RC U604:A1 1.310e-02
*END

*R_NET n837 5.475e+00
*DRIVER U601:Z
*CELL XOR2_X1
*C2_R1_C1 2.737e+00 1.407e-02 2.737e+00 
*LOADS
*RC U571:A 2.195e-02
*RC U808:A2 1.656e-02
*END

*R_NET n839 2.314e+00
*DRIVER U757:ZN
*CELL NAND2_X1
*C2_R1_C1 1.157e+00 6.236e-03 1.157e+00 
*LOADS
*RC U749:A2 1.443e-02
*END

*R_NET n840 5.777e+00
*DRIVER U621:ZN
*CELL NOR3_X1
*C2_R1_C1 2.888e+00 1.407e-02 2.888e+00 
*LOADS
*RC U757:A2 1.656e-02
*RC U572:B 2.408e-02
*END

*R_NET n841 4.530e+00
*DRIVER U602:ZN
*CELL NAND2_X1
*C2_R1_C1 2.265e+00 1.407e-02 2.265e+00 
*LOADS
*RC U608:A1 1.538e-02
*RC U691:A2 1.656e-02
*END

*R_NET n845 2.275e+00
*DRIVER U659:ZN
*CELL NOR2_X1
*C2_R1_C1 1.138e+00 6.236e-03 1.138e+00 
*LOADS
*RC U656:A2 1.419e-02
*END

*R_NET n846 3.383e+00
*DRIVER U726:ZN
*CELL AND2_X1
*C2_R1_C1 1.692e+00 6.236e-03 1.692e+00 
*LOADS
*RC U573:B 2.110e-02
*END

*R_NET n847 3.858e+00
*DRIVER U732:ZN
*CELL NAND2_X1
*C2_R1_C1 1.929e+00 1.407e-02 1.929e+00 
*LOADS
*RC U660:A2 1.656e-02
*RC U726:A2 1.058e-02
*END

*R_NET n848 6.954e+00
*DRIVER U629:ZN
*CELL AND2_X1
*C2_R1_C1 3.477e+00 2.308e-02 3.477e+00 
*LOADS
*RC U657:A2 1.806e-02
*RC U659:A2 1.806e-02
*RC U732:A1 1.738e-02
*END

*R_NET n849 1.404e+00
*DRIVER U758:ZN
*CELL NAND2_X1
*C2_R1_C1 7.019e-01 6.236e-03 7.019e-01 
*LOADS
*RC U629:A1 8.754e-03
*END

*R_NET n850 1.465e+00
*DRIVER U682:ZN
*CELL NAND2_X1
*C2_R1_C1 7.324e-01 6.236e-03 7.324e-01 
*LOADS
*RC U629:A2 9.134e-03
*END

*R_NET n851 2.314e+00
*DRIVER U683:ZN
*CELL NAND3_X1
*C2_R1_C1 1.157e+00 6.236e-03 1.157e+00 
*LOADS
*RC U682:A2 1.443e-02
*END

*R_NET n852 2.146e+00
*DRIVER U696:ZN
*CELL NAND2_X1
*C2_R1_C1 1.073e+00 6.236e-03 1.073e+00 
*LOADS
*RC U683:A1 1.338e-02
*END

*R_NET n853 4.560e+00
*DRIVER U767:ZN
*CELL NAND2_X1
*C2_R1_C1 2.280e+00 1.407e-02 2.280e+00 
*LOADS
*RC U683:A3 1.641e-02
*RC U766:A1 1.566e-02
*END

*R_NET n854 2.314e+00
*DRIVER U768:ZN
*CELL OR2_X1
*C2_R1_C1 1.157e+00 6.236e-03 1.157e+00 
*LOADS
*RC U696:A2 1.443e-02
*END

*R_NET n855 3.081e+00
*DRIVER U720:ZN
*CELL NAND2_X1
*C2_R1_C1 1.541e+00 6.236e-03 1.541e+00 
*LOADS
*RC U620:A 1.921e-02
*END

*R_NET n856 5.475e+00
*DRIVER U766:ZN
*CELL NAND2_X1
*C2_R1_C1 2.737e+00 1.407e-02 2.737e+00 
*LOADS
*RC U758:A2 1.656e-02
*RC U574:A 2.195e-02
*END

*R_NET n857 3.383e+00
*DRIVER U685:ZN
*CELL XNOR2_X1
*C2_R1_C1 1.692e+00 6.236e-03 1.692e+00 
*LOADS
*RC U574:B 2.110e-02
*END

*R_NET n858 2.314e+00
*DRIVER U793:ZN
*CELL NAND2_X1
*C2_R1_C1 1.157e+00 6.236e-03 1.157e+00 
*LOADS
*RC U766:A2 1.443e-02
*END

*R_NET n859 5.347e+00
*DRIVER U620:Z
*CELL XOR2_X1
*C2_R1_C1 2.674e+00 1.407e-02 2.674e+00 
*LOADS
*RC U575:A 2.195e-02
*RC U793:A1 1.566e-02
*END

*R_NET n860 4.708e+00
*DRIVER U778:ZN
*CELL NAND2_X1
*C2_R1_C1 2.354e+00 1.407e-02 2.354e+00 
*LOADS
*RC U637:A2 1.656e-02
*RC U720:A2 1.656e-02
*END

*R_NET n861 4.453e+00
*DRIVER U721:ZN
*CELL NAND2_X1
*C2_R1_C1 2.226e+00 1.407e-02 2.226e+00 
*LOADS
*RC U637:A1 1.566e-02
*RC U720:A1 1.566e-02
*END

*R_NET n862 2.314e+00
*DRIVER U666:ZN
*CELL NAND2_X1
*C2_R1_C1 1.157e+00 6.236e-03 1.157e+00 
*LOADS
*RC U721:A2 1.443e-02
*END

*R_NET n863 5.475e+00
*DRIVER U743:ZN
*CELL NAND2_X1
*C2_R1_C1 2.737e+00 1.407e-02 2.737e+00 
*LOADS
*RC U778:A2 1.656e-02
*RC U577:A 2.195e-02
*END

*R_NET n864 3.383e+00
*DRIVER U578:Z
*CELL XOR2_X1
*C2_R1_C1 1.692e+00 6.236e-03 1.692e+00 
*LOADS
*RC U577:B 2.110e-02
*END

*R_NET n865 4.623e+00
*DRIVER U744:ZN
*CELL NAND2_X1
*C2_R1_C1 2.312e+00 1.407e-02 2.312e+00 
*LOADS
*RC U614:A 1.686e-02
*RC U743:A1 1.566e-02
*END

*R_NET n866 2.314e+00
*DRIVER U794:ZN
*CELL NAND2_X1
*C2_R1_C1 1.157e+00 6.236e-03 1.157e+00 
*LOADS
*RC U743:A2 1.443e-02
*END

*R_NET n867 8.101e+00
*DRIVER U712:ZN
*CELL XNOR2_X1
*C2_R1_C1 4.051e+00 2.308e-02 4.051e+00 
*LOADS
*RC U579:B 2.659e-02
*RC U794:A2 1.836e-02
*RC U665:A1 1.738e-02
*END

*R_NET n868 5.372e+00
*DRIVER U750:ZN
*CELL NAND2_X1
*C2_R1_C1 2.686e+00 1.407e-02 2.686e+00 
*LOADS
*RC U744:A1 1.566e-02
*RC U712:A 2.213e-02
*END

*R_NET n869 2.314e+00
*DRIVER U751:ZN
*CELL NAND2_X1