*SPEF "IEEE 1481-1999"
*DESIGN "traditional_multiplier16"
*DATE "Thu Aug 27 21:53:19 2020"
*VENDOR "SYNOPSYS INC"
*PROGRAM "Synopsys Design Compiler cmos"
*VERSION "N-2017.09-SP3"
*DESIGN_FLOW "SYNTHESIS"
*DIVIDER /
*DELIMITER :
*BUS_DELIMITER []
*T_UNIT 1.0 NS
*C_UNIT 0.0010 PF
*R_UNIT 1000.0 KOHM
*L_UNIT 1.0 HENRY

*PORTS

operand1_i\[15\] I *L 0.000e+00 *S 0.000e+00 0.000e+00 
operand1_i\[14\] I *L 0.000e+00 *S 0.000e+00 0.000e+00 
operand1_i\[13\] I *L 0.000e+00 *S 0.000e+00 0.000e+00 
operand1_i\[12\] I *L 0.000e+00 *S 0.000e+00 0.000e+00 
operand1_i\[11\] I *L 0.000e+00 *S 0.000e+00 0.000e+00 
operand1_i\[10\] I *L 0.000e+00 *S 0.000e+00 0.000e+00 
operand1_i\[9\] I *L 0.000e+00 *S 0.000e+00 0.000e+00 
operand1_i\[8\] I *L 0.000e+00 *S 0.000e+00 0.000e+00 
operand1_i\[7\] I *L 0.000e+00 *S 0.000e+00 0.000e+00 
operand1_i\[6\] I *L 0.000e+00 *S 0.000e+00 0.000e+00 
operand1_i\[5\] I *L 0.000e+00 *S 0.000e+00 0.000e+00 
operand1_i\[4\] I *L 0.000e+00 *S 0.000e+00 0.000e+00 
operand1_i\[3\] I *L 0.000e+00 *S 0.000e+00 0.000e+00 
operand1_i\[2\] I *L 0.000e+00 *S 0.000e+00 0.000e+00 
operand1_i\[1\] I *L 0.000e+00 *S 0.000e+00 0.000e+00 
operand1_i\[0\] I *L 0.000e+00 *S 0.000e+00 0.000e+00 
operand2_i\[15\] I *L 0.000e+00 *S 0.000e+00 0.000e+00 
operand2_i\[14\] I *L 0.000e+00 *S 0.000e+00 0.000e+00 
operand2_i\[13\] I *L 0.000e+00 *S 0.000e+00 0.000e+00 
operand2_i\[12\] I *L 0.000e+00 *S 0.000e+00 0.000e+00 
operand2_i\[11\] I *L 0.000e+00 *S 0.000e+00 0.000e+00 
operand2_i\[10\] I *L 0.000e+00 *S 0.000e+00 0.000e+00 
operand2_i\[9\] I *L 0.000e+00 *S 0.000e+00 0.000e+00 
operand2_i\[8\] I *L 0.000e+00 *S 0.000e+00 0.000e+00 
operand2_i\[7\] I *L 0.000e+00 *S 0.000e+00 0.000e+00 
operand2_i\[6\] I *L 0.000e+00 *S 0.000e+00 0.000e+00 
operand2_i\[5\] I *L 0.000e+00 *S 0.000e+00 0.000e+00 
operand2_i\[4\] I *L 0.000e+00 *S 0.000e+00 0.000e+00 
operand2_i\[3\] I *L 0.000e+00 *S 0.000e+00 0.000e+00 
operand2_i\[2\] I *L 0.000e+00 *S 0.000e+00 0.000e+00 
operand2_i\[1\] I *L 0.000e+00 *S 0.000e+00 0.000e+00 
operand2_i\[0\] I *L 0.000e+00 *S 0.000e+00 0.000e+00 
product_o\[31\] O *L 1.000e-01 *S 1.851e-03 1.752e-03 
product_o\[30\] O *L 1.000e-01 *S 2.700e-03 1.836e-03 
product_o\[29\] O *L 1.000e-01 *S 2.700e-03 1.836e-03 
product_o\[28\] O *L 1.000e-01 *S 2.700e-03 1.836e-03 
product_o\[27\] O *L 1.000e-01 *S 2.700e-03 1.836e-03 
product_o\[26\] O *L 1.000e-01 *S 2.769e-03 1.850e-03 
product_o\[25\] O *L 1.000e-01 *S 2.769e-03 1.850e-03 
product_o\[24\] O *L 1.000e-01 *S 2.769e-03 1.850e-03 
product_o\[23\] O *L 1.000e-01 *S 2.769e-03 1.850e-03 
product_o\[22\] O *L 1.000e-01 *S 2.769e-03 1.850e-03 
product_o\[21\] O *L 1.000e-01 *S 2.769e-03 1.850e-03 
product_o\[20\] O *L 1.000e-01 *S 2.769e-03 1.850e-03 
product_o\[19\] O *L 1.000e-01 *S 2.769e-03 1.850e-03 
product_o\[18\] O *L 1.000e-01 *S 2.769e-03 1.850e-03 
product_o\[17\] O *L 1.000e-01 *S 2.769e-03 1.850e-03 
product_o\[16\] O *L 1.000e-01 *S 2.700e-03 1.836e-03 
product_o\[15\] O *L 1.000e-01 *S 2.769e-03 1.850e-03 
product_o\[14\] O *L 1.000e-01 *S 1.851e-03 1.752e-03 
product_o\[13\] O *L 1.000e-01 *S 2.769e-03 1.850e-03 
product_o\[12\] O *L 1.000e-01 *S 2.769e-03 1.850e-03 
product_o\[11\] O *L 1.000e-01 *S 2.700e-03 1.836e-03 
product_o\[10\] O *L 1.000e-01 *S 2.700e-03 1.836e-03 
product_o\[9\] O *L 1.000e-01 *S 1.780e-03 1.966e-03 
product_o\[8\] O *L 1.000e-01 *S 2.700e-03 1.836e-03 
product_o\[7\] O *L 1.000e-01 *S 2.700e-03 1.836e-03 
product_o\[6\] O *L 1.000e-01 *S 2.769e-03 1.850e-03 
product_o\[5\] O *L 1.000e-01 *S 2.700e-03 1.836e-03 
product_o\[4\] O *L 1.000e-01 *S 2.769e-03 1.850e-03 
product_o\[3\] O *L 1.000e-01 *S 2.700e-03 1.836e-03 
product_o\[2\] O *L 1.000e-01 *S 2.769e-03 1.850e-03 
product_o\[1\] O *L 1.000e-01 *S 2.700e-03 1.836e-03 
product_o\[0\] O *L 1.000e-01 *S 2.946e-03 1.653e-03 

*R_NET operand1_i\[15\] 3.352e+01
*DRIVER operand1_i\[15\]
*CELL NULL
*C2_R1_C1 1.676e+01 2.037e-01 1.676e+01 
*LOADS
*RC U2502:A1 2.024e-02
*RC U2689:A1 2.913e-02
*RC U2691:A1 2.024e-02
*RC U2692:A1 2.024e-02
*RC U2693:A1 2.024e-02
*RC U2694:A1 2.024e-02
*RC U2695:A1 2.024e-02
*RC U2729:A1 2.962e-02
*RC U2756:A1 2.962e-02
*RC U2765:A3 2.085e-02
*RC U2780:A1 2.962e-02
*RC U2781:A2 3.115e-02
*RC U2782:A1 2.024e-02
*RC U2806:A1 2.024e-02
*RC U2815:A1 1.930e-02
*RC U2816:A3 2.085e-02
*RC U2819:A1 2.962e-02
*END

*R_NET operand1_i\[14\] 4.131e+01
*DRIVER operand1_i\[14\]
*CELL NULL
*C2_R1_C1 2.065e+01 2.037e-01 2.065e+01 
*LOADS
*RC U2334:A 3.166e-02
*RC U2370:A1 2.962e-02
*RC U2430:A1 2.962e-02
*RC U2440:A1 2.913e-02
*RC U2581:A1 2.913e-02
*RC U2616:A1 2.962e-02
*RC U2618:A1 2.962e-02
*RC U2620:A2 3.115e-02
*RC U2642:A1 2.962e-02
*RC U2662:A1 2.913e-02
*RC U2727:A1 2.913e-02
*RC U2758:A1 2.913e-02
*RC U2764:A1 1.930e-02
*RC U2769:A1 2.962e-02
*RC U2775:A2 3.115e-02
*RC U2793:A1 2.913e-02
*RC U2796:A2 2.982e-02
*END

*R_NET operand1_i\[13\] 4.829e+01
*DRIVER operand1_i\[13\]
*CELL NULL
*C2_R1_C1 2.414e+01 2.394e-01 2.414e+01 
*LOADS
*RC U2346:A 3.369e-02
*RC U2402:A1 3.154e-02
*RC U2437:A1 3.103e-02
*RC U2554:A1 3.103e-02
*RC U2582:A3 3.288e-02
*RC U2612:A1 3.154e-02
*RC U2634:A2 3.314e-02
*RC U2640:A1 3.154e-02
*RC U2660:A1 3.103e-02
*RC U2672:A2 3.174e-02
*RC U2728:A3 3.288e-02
*RC U2759:A3 3.288e-02
*RC U2767:A2 3.314e-02
*RC U2771:A2 3.314e-02
*RC U2779:A1 3.103e-02
*RC U2790:A2 3.174e-02
*RC U2794:A1 3.103e-02
*RC U2797:A1 3.103e-02
*RC U2804:A2 3.314e-02
*END

*R_NET operand1_i\[12\] 4.557e+01
*DRIVER operand1_i\[12\]
*CELL NULL
*C2_R1_C1 2.279e+01 2.215e-01 2.279e+01 
*LOADS
*RC U2344:A 3.273e-02
*RC U2380:A1 3.063e-02
*RC U2441:A3 3.194e-02
*RC U2551:A1 3.013e-02
*RC U2555:A3 3.194e-02
*RC U2614:A2 3.220e-02
*RC U2622:A2 3.220e-02
*RC U2636:A1 3.063e-02
*RC U2644:A1 3.063e-02
*RC U2661:A3 3.194e-02
*RC U2666:A2 3.083e-02
*RC U2673:A1 3.013e-02
*RC U2724:A1 3.013e-02
*RC U2773:A2 3.220e-02
*RC U2778:A1 3.013e-02
*RC U2787:A2 3.083e-02
*RC U2791:A1 3.013e-02
*RC U2813:A2 3.220e-02
*END

*R_NET operand1_i\[11\] 4.804e+01
*DRIVER operand1_i\[11\]
*CELL NULL
*C2_R1_C1 2.402e+01 2.394e-01 2.402e+01 
*LOADS
*RC U2336:A 3.369e-02
*RC U2366:A1 3.154e-02
*RC U2378:A1 3.154e-02
*RC U2438:A3 3.288e-02
*RC U2465:A1 3.103e-02
*RC U2500:A1 3.103e-02
*RC U2552:A3 3.288e-02
*RC U2575:A1 3.103e-02
*RC U2632:A2 3.314e-02
*RC U2638:A2 3.314e-02
*RC U2656:A1 3.154e-02
*RC U2667:A1 3.103e-02
*RC U2677:A2 3.174e-02
*RC U2721:A1 3.103e-02
*RC U2725:A3 3.288e-02
*RC U2776:A1 3.103e-02
*RC U2784:A1 3.103e-02
*RC U2788:A1 3.103e-02
*RC U2800:A2 3.314e-02
*END

*R_NET operand1_i\[10\] 4.535e+01
*DRIVER operand1_i\[10\]
*CELL NULL
*C2_R1_C1 2.268e+01 2.215e-01 2.268e+01 
*LOADS
*RC U1611:A 3.273e-02
*RC U2342:A1 3.063e-02
*RC U2394:A1 3.063e-02
*RC U2428:A1 3.063e-02
*RC U2462:A1 3.013e-02
*RC U2466:A3 3.194e-02
*RC U2501:A3 3.194e-02
*RC U2524:A1 3.013e-02
*RC U2572:A1 3.013e-02
*RC U2610:A1 3.063e-02
*RC U2630:A1 3.063e-02
*RC U2669:A1 3.013e-02
*RC U2678:A3 3.194e-02
*RC U2700:A1 3.013e-02
*RC U2722:A3 3.194e-02
*RC U2777:A3 3.194e-02
*RC U2785:A3 3.194e-02
*RC U2809:A1 3.063e-02
*END

*R_NET operand1_i\[9\] 4.557e+01
*DRIVER operand1_i\[9\]
*CELL NULL
*C2_R1_C1 2.279e+01 2.215e-01 2.279e+01 
*LOADS
*RC U2340:A1 3.063e-02
*RC U2345:A 3.273e-02
*RC U2398:A1 3.063e-02
*RC U2426:A1 3.063e-02
*RC U2463:A3 3.194e-02
*RC U2474:A1 3.013e-02
*RC U2521:A1 3.013e-02
*RC U2525:A3 3.194e-02
*RC U2576:A3 3.194e-02
*RC U2609:A2 3.220e-02
*RC U2628:A2 3.220e-02
*RC U2646:A2 3.220e-02
*RC U2670:A1 3.013e-02
*RC U2675:A1 3.013e-02
*RC U2687:A2 3.083e-02
*RC U2701:A1 3.013e-02
*RC U2709:A2 3.083e-02
*RC U2752:A2 3.220e-02
*END

*R_NET operand1_i\[8\] 5.100e+01
*DRIVER operand1_i\[8\]
*CELL NULL
*C2_R1_C1 2.550e+01 2.573e-01 2.550e+01 
*LOADS
*RC U2349:A 3.456e-02
*RC U2358:A1 3.236e-02
*RC U2384:A1 3.236e-02
*RC U2424:A1 3.236e-02
*RC U2446:A1 3.184e-02
*RC U2456:A1 3.184e-02
*RC U2475:A3 3.374e-02
*RC U2522:A3 3.374e-02
*RC U2536:A1 3.184e-02
*RC U2569:A1 3.184e-02
*RC U2573:A3 3.374e-02
*RC U2608:A2 3.400e-02
*RC U2626:A2 3.400e-02
*RC U2648:A2 3.400e-02
*RC U2679:A1 3.184e-02
*RC U2684:A2 3.257e-02
*RC U2688:A1 3.184e-02
*RC U2706:A2 3.257e-02
*RC U2710:A1 3.184e-02
*RC U2748:A2 3.400e-02
*END

*R_NET operand1_i\[7\] 4.826e+01
*DRIVER operand1_i\[7\]
*CELL NULL
*C2_R1_C1 2.413e+01 2.394e-01 2.413e+01 
*LOADS
*RC U2339:A1 3.154e-02
*RC U2351:A 3.369e-02
*RC U2418:A1 3.154e-02
*RC U2422:A2 3.314e-02
*RC U2443:A1 3.103e-02
*RC U2457:A3 3.288e-02
*RC U2530:A1 3.103e-02
*RC U2537:A1 3.103e-02
*RC U2560:A1 3.103e-02
*RC U2570:A3 3.288e-02
*RC U2607:A2 3.314e-02
*RC U2624:A2 3.314e-02
*RC U2652:A2 3.314e-02
*RC U2657:A1 3.103e-02
*RC U2681:A2 3.174e-02
*RC U2685:A1 3.103e-02
*RC U2703:A2 3.174e-02
*RC U2707:A1 3.103e-02
*RC U2732:A2 3.314e-02
*END

*R_NET operand1_i\[6\] 4.554e+01
*DRIVER operand1_i\[6\]
*CELL NULL
*C2_R1_C1 2.277e+01 2.215e-01 2.277e+01 
*LOADS
*RC U1610:A 3.273e-02
*RC U2341:A1 3.063e-02
*RC U2390:A2 3.220e-02
*RC U2406:A2 3.220e-02
*RC U2420:A1 3.063e-02
*RC U2447:A1 3.013e-02
*RC U2483:A2 3.083e-02
*RC U2531:A3 3.194e-02
*RC U2557:A1 3.013e-02
*RC U2561:A3 3.194e-02
*RC U2563:A1 3.013e-02
*RC U2606:A2 3.220e-02
*RC U2654:A2 3.220e-02
*RC U2658:A1 3.013e-02
*RC U2682:A1 3.013e-02
*RC U2704:A1 3.013e-02
*RC U2718:A2 3.083e-02
*RC U2736:A2 3.220e-02
*END

*R_NET operand1_i\[5\] 5.569e+01
*DRIVER operand1_i\[5\]
*CELL NULL
*C2_R1_C1 2.784e+01 2.751e-01 2.784e+01 
*LOADS
*RC U2338:A2 3.479e-02
*RC U2374:A1 3.312e-02
*RC U2388:A2 3.479e-02
*RC U2404:A2 3.479e-02
*RC U2444:A1 3.258e-02
*RC U2451:A1 3.258e-02
*RC U2477:A2 3.333e-02
*RC U2480:A2 3.333e-02
*RC U2484:A1 3.258e-02
*RC U2489:A1 3.258e-02
*RC U2527:A1 3.258e-02
*RC U2533:A2 3.333e-02
*RC U2558:A3 3.452e-02
*RC U2564:A1 3.258e-02
*RC U2605:A2 3.479e-02
*RC U2650:A2 3.479e-02
*RC U2674:A1 3.258e-02
*RC U2715:A2 3.333e-02
*RC U2719:A1 3.258e-02
*RC U2762:A2 3.479e-02
*RC U1294:A 6.022e-02
*END

*R_NET operand1_i\[4\] 4.558e+01
*DRIVER operand1_i\[4\]
*CELL NULL
*C2_R1_C1 2.279e+01 2.215e-01 2.279e+01 
*LOADS
*RC U2335:A1 3.063e-02
*RC U2350:A 3.273e-02
*RC U2368:A2 3.220e-02
*RC U2400:A2 3.220e-02
*RC U2416:A2 3.220e-02
*RC U2471:A2 3.083e-02
*RC U2481:A1 3.013e-02
*RC U2519:A1 3.013e-02
*RC U2528:A1 3.013e-02
*RC U2534:A1 3.013e-02
*RC U2545:A2 3.083e-02
*RC U2604:A2 3.220e-02
*RC U2664:A2 3.220e-02
*RC U2698:A1 3.013e-02
*RC U2712:A2 3.083e-02
*RC U2716:A1 3.013e-02
*RC U2744:A2 3.220e-02
*RC U2826:A3 3.194e-02
*END

*R_NET operand1_i\[3\] 4.826e+01
*DRIVER operand1_i\[3\]
*CELL NULL
*C2_R1_C1 2.413e+01 2.394e-01 2.413e+01 
*LOADS
*RC U2348:A 3.369e-02
*RC U2352:A2 3.314e-02
*RC U2372:A2 3.314e-02
*RC U2396:A2 3.314e-02
*RC U2408:A2 3.314e-02
*RC U2435:A2 3.314e-02
*RC U2459:A1 3.103e-02
*RC U2478:A1 3.103e-02
*RC U2486:A2 3.174e-02
*RC U2490:A1 3.103e-02
*RC U2516:A2 3.174e-02
*RC U2546:A1 3.103e-02
*RC U2548:A2 3.174e-02
*RC U2566:A1 3.103e-02
*RC U2603:A2 3.314e-02
*RC U2697:A1 3.103e-02
*RC U2713:A1 3.103e-02
*RC U2740:A2 3.314e-02
*RC U2848:A1 3.103e-02
*END

*R_NET operand1_i\[2\] 5.105e+01
*DRIVER operand1_i\[2\]
*CELL NULL
*C2_R1_C1 2.552e+01 2.573e-01 2.552e+01 
*LOADS
*RC U2337:A2 3.400e-02
*RC U2347:A 3.456e-02
*RC U2360:A2 3.400e-02
*RC U2386:A2 3.400e-02
*RC U2392:A2 3.400e-02
*RC U2414:A2 3.400e-02
*RC U2433:A2 3.400e-02
*RC U2460:A1 3.184e-02
*RC U2468:A2 3.257e-02
*RC U2472:A1 3.184e-02
*RC U2510:A2 3.257e-02
*RC U2513:A2 3.257e-02
*RC U2517:A1 3.184e-02
*RC U2539:A2 3.257e-02
*RC U2549:A1 3.184e-02
*RC U2567:A1 3.184e-02
*RC U2584:A1 3.184e-02
*RC U2589:A2 3.400e-02
*RC U2592:A1 3.184e-02
*RC U2696:A1 3.184e-02
*END

*R_NET operand1_i\[1\] 4.851e+01
*DRIVER operand1_i\[1\]
*CELL NULL
*C2_R1_C1 2.425e+01 2.394e-01 2.425e+01 
*LOADS
*RC U1612:A 3.369e-02
*RC U2357:A2 3.314e-02
*RC U2359:A2 3.314e-02
*RC U2376:A2 3.314e-02
*RC U2382:A2 3.314e-02
*RC U2412:A2 3.314e-02
*RC U2431:A2 3.174e-02
*RC U2449:A1 3.103e-02
*RC U2453:A2 3.174e-02
*RC U2469:A1 3.103e-02
*RC U2487:A1 3.103e-02
*RC U2496:A2 3.174e-02
*RC U2514:A1 3.103e-02
*RC U2540:A1 3.103e-02
*RC U2542:A2 3.174e-02
*RC U2586:A2 3.314e-02
*RC U2593:A1 3.103e-02
*RC U2600:A2 3.314e-02
*RC U2818:A2 3.314e-02
*END

*R_NET operand1_i\[0\] 5.340e+01
*DRIVER operand1_i\[0\]
*CELL NULL
*C2_R1_C1 2.670e+01 2.751e-01 2.670e+01 
*LOADS
*RC U2333:A2 3.479e-02
*RC U2343:A 3.535e-02
*RC U2354:A2 3.479e-02
*RC U2356:A2 3.479e-02
*RC U2361:A2 3.479e-02
*RC U2410:A2 3.479e-02
*RC U2448:A1 3.258e-02
*RC U2454:A1 3.258e-02
*RC U2493:A2 3.479e-02
*RC U2494:A2 3.479e-02
*RC U2497:A1 3.258e-02
*RC U2503:A1 3.258e-02
*RC U2504:A2 3.333e-02
*RC U2507:A2 3.479e-02
*RC U2508:A2 3.479e-02
*RC U2511:A1 3.258e-02
*RC U2543:A1 3.258e-02
*RC U2579:A1 3.312e-02
*RC U2585:A1 3.258e-02
*RC U2596:A2 3.479e-02
*RC U2602:A2 2.269e-02
*END

*R_NET operand2_i\[15\] 7.955e+01
*DRIVER operand2_i\[15\]
*CELL NULL
*C2_R1_C1 3.978e+01 4.358e-01 3.978e+01 
*LOADS
*RC U2448:A3 3.931e-02
*RC U2449:A3 3.931e-02
*RC U2657:A3 3.931e-02
*RC U2658:A3 3.931e-02
*RC U2674:A3 3.931e-02
*RC U2675:A3 3.931e-02
*RC U2679:A3 3.931e-02
*RC U2696:A3 3.931e-02
*RC U2697:A3 3.931e-02
*RC U2698:A3 3.931e-02
*RC U2776:A3 3.931e-02
*RC U2778:A3 3.931e-02
*RC U2819:A2 3.960e-02
*RC U2813:A1 3.775e-02
*RC U2809:A2 3.960e-02
*RC U2800:A1 3.775e-02
*RC U2779:A3 3.931e-02
*RC U2762:A1 3.775e-02
*RC U2752:A1 3.775e-02
*RC U2748:A1 3.775e-02
*RC U2744:A1 3.775e-02
*RC U2740:A1 3.775e-02
*RC U2736:A1 3.775e-02
*RC U2732:A1 3.775e-02
*RC U2589:A1 3.775e-02
*RC U2596:A1 3.775e-02
*RC U2600:A1 3.775e-02
*RC U2775:A1 3.775e-02
*RC U2777:A1 3.716e-02
*RC U2804:A1 3.775e-02
*END

*R_NET operand2_i\[14\] 7.888e+01
*DRIVER operand2_i\[14\]
*CELL NULL
*C2_R1_C1 3.944e+01 4.358e-01 3.944e+01 
*LOADS
*RC U2511:A3 3.931e-02
*RC U2514:A3 3.931e-02
*RC U2517:A3 3.931e-02
*RC U2713:A3 3.931e-02
*RC U2716:A3 3.931e-02
*RC U2719:A3 3.931e-02
*RC U2788:A3 3.931e-02
*RC U2791:A3 3.931e-02
*RC U2794:A3 3.931e-02
*RC U2359:A1 3.775e-02
*RC U2360:A1 3.775e-02
*RC U2603:A1 3.775e-02
*RC U2604:A1 3.775e-02
*RC U2605:A1 3.775e-02
*RC U2606:A1 3.775e-02
*RC U2607:A1 3.775e-02
*RC U2608:A1 3.775e-02
*RC U2785:A1 3.716e-02
*RC U2806:A2 2.726e-02
*RC U2361:A1 3.775e-02
*RC U2609:A1 3.775e-02
*RC U2610:A2 3.960e-02
*RC U2638:A1 3.775e-02
*RC U2701:A3 3.931e-02
*RC U2704:A3 3.931e-02
*RC U2707:A3 3.931e-02
*RC U2710:A3 3.931e-02
*RC U2771:A1 3.775e-02
*RC U2773:A1 3.775e-02
*RC U2925:A 4.023e-02
*END

*R_NET operand2_i\[13\] 7.235e+01
*DRIVER operand2_i\[13\]
*CELL NULL
*C2_R1_C1 3.618e+01 4.001e-01 3.618e+01 
*LOADS
*RC U2614:A1 3.697e-02
*RC U2646:A1 3.697e-02
*RC U2648:A1 3.697e-02
*RC U2650:A1 3.697e-02
*RC U2652:A1 3.697e-02
*RC U2654:A1 3.697e-02
*RC U2700:A2 3.720e-02
*RC U2767:A1 3.697e-02
*RC U2769:A2 3.879e-02
*RC U2784:A2 3.720e-02
*RC U2504:A1 3.639e-02
*RC U2433:A1 3.697e-02
*RC U2435:A1 3.697e-02
*RC U2513:A1 3.639e-02
*RC U2516:A1 3.639e-02
*RC U2664:A1 3.697e-02
*RC U2703:A1 3.639e-02
*RC U2706:A1 3.639e-02
*RC U2709:A1 3.639e-02
*RC U2712:A1 3.639e-02
*RC U2715:A1 3.639e-02
*RC U2718:A1 3.639e-02
*RC U2787:A1 3.639e-02
*RC U2790:A1 3.639e-02
*RC U2494:A1 3.697e-02
*RC U2780:A2 3.879e-02
*RC U2793:A2 3.720e-02
*RC U2498:A 3.940e-02
*END

*R_NET operand2_i\[12\] 8.542e+00
*DRIVER operand2_i\[12\]
*CELL NULL
*C2_R1_C1 4.271e+00 3.293e-02 4.271e+00 
*LOADS
*RC U1614:A 2.022e-02
*RC U2507:A1 1.882e-02
*RC U2510:A1 1.848e-02
*RC U2782:A2 1.288e-02
*END

*R_NET operand2_i\[11\] 7.887e+01
*DRIVER operand2_i\[11\]
*CELL NULL
*C2_R1_C1 3.943e+01 4.358e-01 3.943e+01 
*LOADS
*RC U2481:A3 3.931e-02
*RC U2484:A3 3.931e-02
*RC U2667:A3 3.931e-02
*RC U2670:A3 3.931e-02
*RC U2682:A3 3.931e-02
*RC U2685:A3 3.931e-02
*RC U2388:A1 3.775e-02
*RC U2396:A1 3.775e-02
*RC U2400:A1 3.775e-02
*RC U2454:A3 3.931e-02
*RC U2469:A3 3.931e-02
*RC U2472:A3 3.931e-02
*RC U2478:A3 3.931e-02
*RC U2624:A1 3.775e-02
*RC U2630:A2 3.960e-02
*RC U2688:A3 3.931e-02
*RC U2815:A3 2.712e-02
*RC U2354:A1 3.775e-02
*RC U2382:A1 3.775e-02
*RC U2386:A1 3.775e-02
*RC U2390:A1 3.775e-02
*RC U2622:A1 3.775e-02
*RC U2626:A1 3.775e-02
*RC U2628:A1 3.775e-02
*RC U2632:A1 3.775e-02
*RC U2634:A1 3.775e-02
*RC U2678:A1 3.716e-02
*RC U2673:A3 3.931e-02
*RC U2797:A3 3.931e-02
*RC U2924:A 4.023e-02
*END

*R_NET operand2_i\[10\] 3.613e+01
*DRIVER operand2_i\[10\]
*CELL NULL
*C2_R1_C1 1.807e+01 1.680e-01 1.807e+01 
*LOADS
*RC U1613:A 2.916e-02
*RC U2453:A1 2.679e-02
*RC U2468:A1 2.679e-02
*RC U2480:A1 2.679e-02
*RC U2483:A1 2.679e-02
*RC U2620:A1 2.725e-02
*RC U2666:A1 2.679e-02
*RC U2669:A2 2.743e-02
*RC U2672:A1 2.679e-02
*RC U2677:A1 2.679e-02
*RC U2681:A1 2.679e-02
*RC U2684:A1 2.679e-02
*RC U2687:A1 2.679e-02
*RC U2781:A1 2.725e-02
*RC U2796:A1 2.679e-02
*END

*R_NET operand2_i\[9\] 1.324e+01
*DRIVER operand2_i\[9\]
*CELL NULL
*C2_R1_C1 6.621e+00 5.299e-02 6.621e+00 
*LOADS
*RC U2362:A 2.196e-02
*RC U2471:A1 2.009e-02
*RC U2477:A1 2.009e-02
*RC U2493:A1 2.045e-02
*RC U2586:A1 2.045e-02
*RC U2695:A2 1.407e-02
*END

*R_NET operand2_i\[8\] 7.859e+01
*DRIVER operand2_i\[8\]
*CELL NULL
*C2_R1_C1 3.929e+01 4.358e-01 3.929e+01 
*LOADS
*RC U2444:A3 3.931e-02
*RC U2447:A3 3.931e-02
*RC U2534:A3 3.931e-02
*RC U2537:A3 3.931e-02
*RC U2540:A3 3.931e-02
*RC U2543:A3 3.931e-02
*RC U2546:A3 3.931e-02
*RC U2549:A3 3.931e-02
*RC U2612:A2 3.960e-02
*RC U2404:A1 3.775e-02
*RC U2408:A1 3.775e-02
*RC U2414:A1 3.775e-02
*RC U2416:A1 3.775e-02
*RC U2522:A1 3.716e-02
*RC U2525:A1 3.716e-02
*RC U2661:A1 3.716e-02
*RC U2722:A1 3.716e-02
*RC U2725:A1 3.716e-02
*RC U2759:A1 3.716e-02
*RC U2406:A1 3.775e-02
*RC U2410:A1 3.775e-02
*RC U2412:A1 3.775e-02
*RC U2422:A1 3.775e-02
*RC U2424:A2 3.960e-02
*RC U2426:A2 3.960e-02
*RC U2428:A2 3.960e-02
*RC U2644:A2 3.960e-02
*RC U2656:A2 3.960e-02
*RC U2816:A1 2.524e-02
*RC U2923:A 4.023e-02
*END

*R_NET operand2_i\[7\] 4.059e+01
*DRIVER operand2_i\[7\]
*CELL NULL
*C2_R1_C1 2.029e+01 1.858e-01 2.029e+01 
*LOADS
*RC U2521:A2 2.869e-02
*RC U2524:A2 2.869e-02
*RC U2533:A1 2.803e-02
*RC U2536:A2 2.869e-02
*RC U2539:A1 2.803e-02
*RC U2542:A1 2.803e-02
*RC U2545:A1 2.803e-02
*RC U2548:A1 2.803e-02
*RC U2602:A1 1.850e-02
*RC U2618:A2 2.998e-02
*RC U2660:A2 2.869e-02
*RC U2721:A2 2.869e-02
*RC U2724:A2 2.869e-02
*RC U2729:A2 2.998e-02
*RC U2758:A2 2.869e-02
*RC U1312:A 5.253e-02
*END

*R_NET operand2_i\[6\] 1.288e+01
*DRIVER operand2_i\[6\]
*CELL NULL
*C2_R1_C1 6.439e+00 4.254e-02 6.439e+00 
*LOADS
*RC U2363:A 3.717e-02
*RC U2443:A2 1.971e-02
*RC U2446:A2 1.971e-02
*RC U2508:A1 1.957e-02
*RC U2694:A2 1.342e-02
*END

*R_NET operand2_i\[5\] 8.422e+01
*DRIVER operand2_i\[5\]
*CELL NULL
*C2_R1_C1 4.211e+01 4.715e-01 4.211e+01 
*LOADS
*RC U2764:A2 2.672e-02
*RC U2689:A2 3.869e-02
*RC U2642:A2 4.032e-02
*RC U2640:A2 4.032e-02
*RC U2636:A2 4.032e-02
*RC U2576:A1 3.785e-02
*RC U2368:A1 3.844e-02
*RC U2366:A2 4.032e-02
*RC U2357:A1 3.844e-02
*RC U2356:A1 3.844e-02
*RC U2352:A1 3.844e-02
*RC U2338:A1 3.844e-02
*RC U2337:A1 3.844e-02
*RC U2339:A2 4.032e-02
*RC U2340:A2 4.032e-02
*RC U2341:A2 4.032e-02
*RC U2342:A2 4.032e-02
*RC U2358:A2 4.032e-02
*RC U2528:A3 4.002e-02
*RC U2564:A3 4.002e-02
*RC U2567:A3 4.002e-02
*RC U2585:A3 4.002e-02
*RC U2593:A3 4.002e-02
*RC U2756:A2 4.032e-02
*RC U2848:A3 4.002e-02
*RC U2501:A1 3.785e-02
*RC U2552:A1 3.785e-02
*RC U2555:A1 3.785e-02
*RC U2561:A1 3.785e-02
*RC U2570:A1 3.785e-02
*RC U2573:A1 3.785e-02
*RC U2728:A1 3.785e-02
*END

*R_NET operand2_i\[4\] 3.826e+01
*DRIVER operand2_i\[4\]
*CELL NULL
*C2_R1_C1 1.913e+01 1.680e-01 1.913e+01 
*LOADS
*RC U2500:A2 2.743e-02
*RC U2503:A3 2.845e-02
*RC U2519:A2 2.743e-02
*RC U2527:A2 2.743e-02
*RC U2551:A2 2.743e-02
*RC U2554:A2 2.743e-02
*RC U2560:A2 2.743e-02
*RC U2563:A2 2.743e-02
*RC U2566:A2 2.743e-02
*RC U2569:A2 2.743e-02
*RC U2592:A2 2.743e-02
*RC U2616:A2 2.868e-02
*RC U2691:A2 1.916e-02
*RC U2727:A2 2.743e-02
*RC U1314:A 5.042e-02
*END

*R_NET operand2_i\[3\] 1.542e+01
*DRIVER operand2_i\[3\]
*CELL NULL
*C2_R1_C1 7.709e+00 5.299e-02 7.709e+00 
*LOADS
*RC U2355:A 3.872e-02
*RC U2572:A2 2.059e-02
*RC U2575:A2 2.059e-02
*RC U2579:A2 2.158e-02
*RC U2584:A2 2.059e-02
*RC U2693:A2 1.407e-02
*END

*R_NET operand2_i\[2\] 8.121e+01
*DRIVER operand2_i\[2\]
*CELL NULL
*C2_R1_C1 4.060e+01 4.537e-01 4.060e+01 
*LOADS
*RC U2335:A2 3.997e-02
*RC U2374:A2 3.997e-02
*RC U2378:A2 3.997e-02
*RC U2384:A2 3.997e-02
*RC U2394:A2 3.997e-02
*RC U2398:A2 3.997e-02
*RC U2418:A2 3.997e-02
*RC U2420:A2 3.997e-02
*RC U2460:A3 3.967e-02
*RC U2487:A3 3.967e-02
*RC U2490:A3 3.967e-02
*RC U2497:A3 3.967e-02
*RC U2765:A1 2.551e-02
*RC U2662:A2 3.835e-02
*RC U2475:A1 3.752e-02
*RC U2466:A1 3.752e-02
*RC U2463:A1 3.752e-02
*RC U2457:A1 3.752e-02
*RC U2430:A2 3.997e-02
*RC U2402:A2 3.997e-02
*RC U2392:A1 3.811e-02
*RC U2380:A2 3.997e-02
*RC U2376:A1 3.811e-02
*RC U2372:A1 3.811e-02
*RC U2333:A1 3.811e-02
*RC U2438:A1 3.752e-02
*RC U2441:A1 3.752e-02
*RC U2531:A1 3.752e-02
*RC U2558:A1 3.752e-02
*RC U2582:A1 3.752e-02
*RC U2826:A1 3.752e-02
*END

*R_NET operand2_i\[1\] 3.254e+01
*DRIVER operand2_i\[1\]
*CELL NULL
*C2_R1_C1 1.627e+01 1.323e-01 1.627e+01 
*LOADS
*RC U2370:A2 2.553e-02
*RC U2451:A2 2.440e-02
*RC U2456:A2 2.440e-02
*RC U2459:A2 2.440e-02
*RC U2462:A2 2.440e-02
*RC U2465:A2 2.440e-02
*RC U2474:A2 2.440e-02
*RC U2496:A1 2.382e-02
*RC U2530:A2 2.440e-02
*RC U2557:A2 2.440e-02
*RC U2581:A2 2.440e-02
*RC U2692:A2 1.689e-02
*RC U2832:A 4.529e-02
*END

*R_NET operand2_i\[0\] 2.033e+01
*DRIVER operand2_i\[0\]
*CELL NULL
*C2_R1_C1 1.017e+01 8.097e-02 1.017e+01 
*LOADS
*RC U2364:A 4.503e-02
*RC U2431:A1 2.368e-02
*RC U2437:A2 2.425e-02
*RC U2440:A2 2.425e-02
*RC U2486:A1 2.368e-02
*RC U2489:A2 2.425e-02
*RC U2502:A2 1.678e-02
*RC U2818:A1 2.409e-02
*END

*R_NET product_o\[31\] 4.097e-01
*DRIVER U1834:ZN
*CELL NAND2_X1
*C2_R1_C1 2.049e-01 6.236e-03 2.049e-01 
*LOADS
*RC product_o\[31\] 2.555e-03
*END

*R_NET product_o\[30\] 4.097e-01
*DRIVER U2875:ZN
*CELL XNOR2_X1
*C2_R1_C1 2.049e-01 6.236e-03 2.049e-01 
*LOADS
*RC product_o\[30\] 2.555e-03
*END

*R_NET product_o\[29\] 4.097e-01
*DRIVER U1715:ZN
*CELL XNOR2_X1
*C2_R1_C1 2.049e-01 6.236e-03 2.049e-01 
*LOADS
*RC product_o\[29\] 2.555e-03
*END

*R_NET product_o\[28\] 4.097e-01
*DRIVER U1716:ZN
*CELL XNOR2_X1
*C2_R1_C1 2.049e-01 6.236e-03 2.049e-01 
*LOADS
*RC product_o\[28\] 2.555e-03
*END

*R_NET product_o\[27\] 4.097e-01
*DRIVER U1669:ZN
*CELL XNOR2_X1
*C2_R1_C1 2.049e-01 6.236e-03 2.049e-01 
*LOADS
*RC product_o\[27\] 2.555e-03
*END

*R_NET product_o\[26\] 4.097e-01
*DRIVER U1335:Z
*CELL XOR2_X1
*C2_R1_C1 2.049e-01 6.236e-03 2.049e-01 
*LOADS
*RC product_o\[26\] 2.555e-03
*END

*R_NET product_o\[25\] 4.097e-01
*DRIVER U1340:Z
*CELL XOR2_X1
*C2_R1_C1 2.049e-01 6.236e-03 2.049e-01 
*LOADS
*RC product_o\[25\] 2.555e-03
*END

*R_NET product_o\[24\] 4.097e-01
*DRIVER U1349:Z
*CELL XOR2_X1
*C2_R1_C1 2.049e-01 6.236e-03 2.049e-01 
*LOADS
*RC product_o\[24\] 2.555e-03
*END

*R_NET product_o\[23\] 4.097e-01
*DRIVER U1359:Z
*CELL XOR2_X1
*C2_R1_C1 2.049e-01 6.236e-03 2.049e-01 
*LOADS
*RC product_o\[23\] 2.555e-03
*END

*R_NET product_o\[22\] 4.097e-01
*DRIVER U1371:Z
*CELL XOR2_X1
*C2_R1_C1 2.049e-01 6.236e-03 2.049e-01 
*LOADS
*RC product_o\[22\] 2.555e-03
*END

*R_NET product_o\[21\] 4.097e-01
*DRIVER U1381:Z
*CELL XOR2_X1
*C2_R1_C1 2.049e-01 6.236e-03 2.049e-01 
*LOADS
*RC product_o\[21\] 2.555e-03
*END

*R_NET product_o\[20\] 4.097e-01
*DRIVER U1393:Z
*CELL XOR2_X1
*C2_R1_C1 2.049e-01 6.236e-03 2.049e-01 
*LOADS
*RC product_o\[20\] 2.555e-03
*END

*R_NET product_o\[19\] 4.097e-01
*DRIVER U1406:Z
*CELL XOR2_X1
*C2_R1_C1 2.049e-01 6.236e-03 2.049e-01 
*LOADS
*RC product_o\[19\] 2.555e-03
*END

*R_NET product_o\[18\] 4.097e-01
*DRIVER U1423:Z
*CELL XOR2_X1
*C2_R1_C1 2.049e-01 6.236e-03 2.049e-01 
*LOADS
*RC product_o\[18\] 2.555e-03
*END

*R_NET product_o\[17\] 4.097e-01
*DRIVER U1441:Z
*CELL XOR2_X1
*C2_R1_C1 2.049e-01 6.236e-03 2.049e-01 
*LOADS
*RC product_o\[17\] 2.555e-03
*END

*R_NET product_o\[16\] 4.097e-01
*DRIVER U1616:ZN
*CELL XNOR2_X1
*C2_R1_C1 2.049e-01 6.236e-03 2.049e-01 
*LOADS
*RC product_o\[16\] 2.555e-03
*END

*R_NET product_o\[15\] 4.097e-01
*DRIVER U1481:Z
*CELL XOR2_X1
*C2_R1_C1 2.049e-01 6.236e-03 2.049e-01 
*LOADS
*RC product_o\[15\] 2.555e-03
*END

*R_NET product_o\[14\] 4.097e-01
*DRIVER U1617:ZN
*CELL NAND2_X1
*C2_R1_C1 2.049e-01 6.236e-03 2.049e-01 
*LOADS
*RC product_o\[14\] 2.555e-03
*END

*R_NET product_o\[13\] 4.097e-01
*DRIVER U1514:Z
*CELL XOR2_X1
*C2_R1_C1 2.049e-01 6.236e-03 2.049e-01 
*LOADS
*RC product_o\[13\] 2.555e-03
*END

*R_NET product_o\[12\] 4.097e-01
*DRIVER U1533:Z
*CELL XOR2_X1
*C2_R1_C1 2.049e-01 6.236e-03 2.049e-01 
*LOADS
*RC product_o\[12\] 2.555e-03
*END

*R_NET product_o\[11\] 4.097e-01
*DRIVER U1915:ZN
*CELL XNOR2_X1
*C2_R1_C1 2.049e-01 6.236e-03 2.049e-01 
*LOADS
*RC product_o\[11\] 2.555e-03
*END

*R_NET product_o\[10\] 4.097e-01
*DRIVER U1923:ZN
*CELL XNOR2_X1
*C2_R1_C1 2.049e-01 6.236e-03 2.049e-01 
*LOADS
*RC product_o\[10\] 2.555e-03
*END

*R_NET product_o\[9\] 4.097e-01
*DRIVER U1643:ZN
*CELL NAND3_X1
*C2_R1_C1 2.049e-01 6.236e-03 2.049e-01 
*LOADS
*RC product_o\[9\] 2.555e-03
*END

*R_NET product_o\[8\] 4.097e-01
*DRIVER U2856:ZN
*CELL XNOR2_X1
*C2_R1_C1 2.049e-01 6.236e-03 2.049e-01 
*LOADS
*RC product_o\[8\] 2.555e-03
*END

*R_NET product_o\[7\] 4.097e-01
*DRIVER U1745:ZN
*CELL XNOR2_X1
*C2_R1_C1 2.049e-01 6.236e-03 2.049e-01 
*LOADS
*RC product_o\[7\] 2.555e-03
*END

*R_NET product_o\[6\] 4.097e-01
*DRIVER U1319:Z
*CELL XOR2_X1
*C2_R1_C1 2.049e-01 6.236e-03 2.049e-01 
*LOADS
*RC product_o\[6\] 2.555e-03
*END

*R_NET product_o\[5\] 4.097e-01
*DRIVER U1924:ZN
*CELL XNOR2_X1
*C2_R1_C1 2.049e-01 6.236e-03 2.049e-01 
*LOADS
*RC product_o\[5\] 2.555e-03
*END

*R_NET product_o\[4\] 4.097e-01
*DRIVER U1321:Z
*CELL XOR2_X1
*C2_R1_C1 2.049e-01 6.236e-03 2.049e-01 
*LOADS
*RC product_o\[4\] 2.555e-03
*END

*R_NET product_o\[3\] 4.097e-01
*DRIVER U2295:ZN
*CELL XNOR2_X1
*C2_R1_C1 2.049e-01 6.236e-03 2.049e-01 
*LOADS
*RC product_o\[3\] 2.555e-03
*END

*R_NET product_o\[2\] 4.097e-01
*DRIVER U1324:Z
*CELL XOR2_X1
*C2_R1_C1 2.049e-01 6.236e-03 2.049e-01 
*LOADS
*RC product_o\[2\] 2.555e-03
*END

*R_NET product_o\[1\] 4.097e-01
*DRIVER U2817:ZN
*CELL XNOR2_X1
*C2_R1_C1 2.049e-01 6.236e-03 2.049e-01 
*LOADS
*RC product_o\[1\] 2.555e-03
*END

*R_NET product_o\[0\] 4.097e-01
*DRIVER U2332:ZN
*CELL NOR2_X1
*C2_R1_C1 2.049e-01 6.236e-03 2.049e-01 
*LOADS
*RC product_o\[0\] 2.555e-03
*END

*R_NET n673 5.478e+00
*DRIVER U2297:ZN
*CELL INV_X1
*C2_R1_C1 2.739e+00 1.407e-02 2.739e+00 
*LOADS
*RC U1921:B 2.296e-02
*RC U1933:A1 1.566e-02
*END

*R_NET n674 2.187e+00
*DRIVER U2805:ZN
*CELL INV_X1
*C2_R1_C1 1.093e+00 6.236e-03 1.093e+00 
*LOADS
*RC U2803:A1 1.364e-02
*END

*R_NET n675 2.146e+00
*DRIVER U1850:ZN
*CELL INV_X1
*C2_R1_C1 1.073e+00 6.236e-03 1.073e+00 
*LOADS
*RC U1849:A1 1.338e-02
*END

*R_NET n676 5.372e+00
*DRIVER U1868:ZN
*CELL INV_X1
*C2_R1_C1 2.686e+00 1.407e-02 2.686e+00 
*LOADS
*RC U1847:A 2.213e-02
*RC U2312:A1 1.566e-02
*END

*R_NET n677 2.314e+00
*DRIVER U2261:ZN
*CELL INV_X1
*C2_R1_C1 1.157e+00 6.236e-03 1.157e+00 
*LOADS
*RC U2260:A2 1.443e-02
*END

*R_NET n678 2.294e+00
*DRIVER U1840:ZN
*CELL INV_X1
*C2_R1_C1 1.147e+00 6.236e-03 1.147e+00 
*LOADS
*RC U1839:A3 1.430e-02
*END

*R_NET n679 1.472e+00
*DRIVER U1906:ZN
*CELL INV_X1
*C2_R1_C1 7.359e-01 6.236e-03 7.359e-01 
*LOADS
*RC U1905:A1 9.177e-03
*END

*R_NET n680 2.294e+00
*DRIVER U1658:ZN
*CELL INV_X1
*C2_R1_C1 1.147e+00 6.236e-03 1.147e+00 
*LOADS
*RC U1657:A3 1.430e-02
*END

*R_NET n681 4.719e+00
*DRIVER U1869:ZN
*CELL INV_X1
*C2_R1_C1 2.359e+00 1.407e-02 2.359e+00 
*LOADS
*RC U1838:B 2.296e-02
*RC U1905:A2 1.032e-02
*END

*R_NET n682 2.187e+00
*DRIVER U2331:ZN
*CELL INV_X1
*C2_R1_C1 1.093e+00 6.236e-03 1.093e+00 
*LOADS
*RC U2330:A1 1.364e-02
*END

*R_NET n683 2.187e+00
*DRIVER U2814:ZN
*CELL INV_X1
*C2_R1_C1 1.093e+00 6.236e-03 1.093e+00 
*LOADS
*RC U2812:A1 1.364e-02
*END

*R_NET n684 2.465e+01
*DRIVER U2334:ZN
*CELL INV_X1
*C2_R1_C1 1.232e+01 9.654e-02 1.232e+01 
*LOADS
*RC U1963:A2 2.108e-02
*RC U2024:A1 2.228e-02
*RC U2189:A1 2.228e-02
*RC U2190:A1 2.228e-02
*RC U2231:A2 2.108e-02
*RC U2275:A2 2.108e-02
*RC U2281:A1 2.228e-02
*RC U2284:A1 2.228e-02
*RC U2317:A1 1.402e-02
*RC U2318:A1 1.402e-02
*RC U2319:A2 1.364e-02
*END

*R_NET n685 2.187e+00
*DRIVER U1620:ZN
*CELL INV_X1
*C2_R1_C1 1.093e+00 6.236e-03 1.093e+00 
*LOADS
*RC U1619:A1 1.364e-02
*END

*R_NET n686 2.294e+00
*DRIVER U1660:ZN
*CELL INV_X1
*C2_R1_C1 1.147e+00 6.236e-03 1.147e+00 
*LOADS
*RC U1659:A3 1.430e-02
*END

*R_NET n687 5.372e+00
*DRIVER U1630:ZN
*CELL INV_X1
*C2_R1_C1 2.686e+00 1.407e-02 2.686e+00 
*LOADS
*RC U1615:A 2.213e-02
*RC U1679:A1 1.566e-02
*END

*R_NET n688 2.187e+00
*DRIVER U2327:ZN
*CELL INV_X1
*C2_R1_C1 1.093e+00 6.236e-03 1.093e+00 
*LOADS
*RC U2326:A1 1.364e-02
*END

*R_NET n689 2.187e+00
*DRIVER U2801:ZN
*CELL INV_X1
*C2_R1_C1 1.093e+00 6.236e-03 1.093e+00 
*LOADS
*RC U2799:A1 1.364e-02
*END

*R_NET n690 2.290e+01
*DRIVER U2346:ZN
*CELL INV_X1
*C2_R1_C1 1.145e+01 9.102e-02 1.145e+01 
*LOADS
*RC U1953:A2 2.496e-02
*RC U1962:A2 2.496e-02
*RC U2012:A1 2.635e-02
*RC U2040:A1 2.635e-02
*RC U2174:A2 2.496e-02
*RC U2175:A1 2.635e-02
*RC U2197:A1 2.635e-02
*RC U2198:A1 2.635e-02
*RC U2280:A2 2.496e-02
*END

*R_NET n691 2.187e+00
*DRIVER U1698:ZN
*CELL INV_X1
*C2_R1_C1 1.093e+00 6.236e-03 1.093e+00 
*LOADS
*RC U1696:A1 1.364e-02
*END

*R_NET n692 2.187e+00
*DRIVER U2323:ZN
*CELL INV_X1
*C2_R1_C1 1.093e+00 6.236e-03 1.093e+00 
*LOADS
*RC U2322:A1 1.364e-02
*END

*R_NET n693 2.187e+00
*DRIVER U2810:ZN
*CELL INV_X1
*C2_R1_C1 1.093e+00 6.236e-03 1.093e+00 
*LOADS
*RC U2808:A1 1.364e-02
*END

*R_NET n694 2.317e+01
*DRIVER U2344:ZN
*CELL INV_X1
*C2_R1_C1 1.159e+01 9.102e-02 1.159e+01 
*LOADS
*RC U1948:A2 2.496e-02
*RC U2011:A1 2.635e-02
*RC U2039:A1 2.635e-02
*RC U2046:A1 2.635e-02
*RC U2048:A1 2.635e-02
*RC U2169:A2 2.496e-02
*RC U2171:A1 2.635e-02
*RC U2194:A1 2.635e-02
*RC U2196:A1 2.635e-02
*END

*R_NET n695 2.187e+00
*DRIVER U2753:ZN
*CELL INV_X1
*C2_R1_C1 1.093e+00 6.236e-03 1.093e+00 
*LOADS
*RC U2751:A1 1.364e-02
*END

*R_NET n696 2.500e+01
*DRIVER U2336:ZN
*CELL INV_X1