*SPEF "IEEE 1481-1999"
*DESIGN "lower_part_or_ripple_carry_adder32"
*DATE "Sat Aug 29 20:59:26 2020"
*VENDOR "SYNOPSYS INC"
*PROGRAM "Synopsys Design Compiler cmos"
*VERSION "N-2017.09-SP3"
*DESIGN_FLOW "SYNTHESIS"
*DIVIDER /
*DELIMITER :
*BUS_DELIMITER []
*T_UNIT 1.0 NS
*C_UNIT 0.0010 PF
*R_UNIT 1000.0 KOHM
*L_UNIT 1.0 HENRY

*PORTS

add1_i\[31\] I *L 0.000e+00 *S 0.000e+00 0.000e+00 
add1_i\[30\] I *L 0.000e+00 *S 0.000e+00 0.000e+00 
add1_i\[29\] I *L 0.000e+00 *S 0.000e+00 0.000e+00 
add1_i\[28\] I *L 0.000e+00 *S 0.000e+00 0.000e+00 
add1_i\[27\] I *L 0.000e+00 *S 0.000e+00 0.000e+00 
add1_i\[26\] I *L 0.000e+00 *S 0.000e+00 0.000e+00 
add1_i\[25\] I *L 0.000e+00 *S 0.000e+00 0.000e+00 
add1_i\[24\] I *L 0.000e+00 *S 0.000e+00 0.000e+00 
add1_i\[23\] I *L 0.000e+00 *S 0.000e+00 0.000e+00 
add1_i\[22\] I *L 0.000e+00 *S 0.000e+00 0.000e+00 
add1_i\[21\] I *L 0.000e+00 *S 0.000e+00 0.000e+00 
add1_i\[20\] I *L 0.000e+00 *S 0.000e+00 0.000e+00 
add1_i\[19\] I *L 0.000e+00 *S 0.000e+00 0.000e+00 
add1_i\[18\] I *L 0.000e+00 *S 0.000e+00 0.000e+00 
add1_i\[17\] I *L 0.000e+00 *S 0.000e+00 0.000e+00 
add1_i\[16\] I *L 0.000e+00 *S 0.000e+00 0.000e+00 
add1_i\[15\] I *L 0.000e+00 *S 0.000e+00 0.000e+00 
add1_i\[14\] I *L 0.000e+00 *S 0.000e+00 0.000e+00 
add1_i\[13\] I *L 0.000e+00 *S 0.000e+00 0.000e+00 
add1_i\[12\] I *L 0.000e+00 *S 0.000e+00 0.000e+00 
add1_i\[11\] I *L 0.000e+00 *S 0.000e+00 0.000e+00 
add1_i\[10\] I *L 0.000e+00 *S 0.000e+00 0.000e+00 
add1_i\[9\] I *L 0.000e+00 *S 0.000e+00 0.000e+00 
add1_i\[8\] I *L 0.000e+00 *S 0.000e+00 0.000e+00 
add1_i\[7\] I *L 0.000e+00 *S 0.000e+00 0.000e+00 
add1_i\[6\] I *L 0.000e+00 *S 0.000e+00 0.000e+00 
add1_i\[5\] I *L 0.000e+00 *S 0.000e+00 0.000e+00 
add1_i\[4\] I *L 0.000e+00 *S 0.000e+00 0.000e+00 
add1_i\[3\] I *L 0.000e+00 *S 0.000e+00 0.000e+00 
add1_i\[2\] I *L 0.000e+00 *S 0.000e+00 0.000e+00 
add1_i\[1\] I *L 0.000e+00 *S 0.000e+00 0.000e+00 
add1_i\[0\] I *L 0.000e+00 *S 0.000e+00 0.000e+00 
add2_i\[31\] I *L 0.000e+00 *S 0.000e+00 0.000e+00 
add2_i\[30\] I *L 0.000e+00 *S 0.000e+00 0.000e+00 
add2_i\[29\] I *L 0.000e+00 *S 0.000e+00 0.000e+00 
add2_i\[28\] I *L 0.000e+00 *S 0.000e+00 0.000e+00 
add2_i\[27\] I *L 0.000e+00 *S 0.000e+00 0.000e+00 
add2_i\[26\] I *L 0.000e+00 *S 0.000e+00 0.000e+00 
add2_i\[25\] I *L 0.000e+00 *S 0.000e+00 0.000e+00 
add2_i\[24\] I *L 0.000e+00 *S 0.000e+00 0.000e+00 
add2_i\[23\] I *L 0.000e+00 *S 0.000e+00 0.000e+00 
add2_i\[22\] I *L 0.000e+00 *S 0.000e+00 0.000e+00 
add2_i\[21\] I *L 0.000e+00 *S 0.000e+00 0.000e+00 
add2_i\[20\] I *L 0.000e+00 *S 0.000e+00 0.000e+00 
add2_i\[19\] I *L 0.000e+00 *S 0.000e+00 0.000e+00 
add2_i\[18\] I *L 0.000e+00 *S 0.000e+00 0.000e+00 
add2_i\[17\] I *L 0.000e+00 *S 0.000e+00 0.000e+00 
add2_i\[16\] I *L 0.000e+00 *S 0.000e+00 0.000e+00 
add2_i\[15\] I *L 0.000e+00 *S 0.000e+00 0.000e+00 
add2_i\[14\] I *L 0.000e+00 *S 0.000e+00 0.000e+00 
add2_i\[13\] I *L 0.000e+00 *S 0.000e+00 0.000e+00 
add2_i\[12\] I *L 0.000e+00 *S 0.000e+00 0.000e+00 
add2_i\[11\] I *L 0.000e+00 *S 0.000e+00 0.000e+00 
add2_i\[10\] I *L 0.000e+00 *S 0.000e+00 0.000e+00 
add2_i\[9\] I *L 0.000e+00 *S 0.000e+00 0.000e+00 
add2_i\[8\] I *L 0.000e+00 *S 0.000e+00 0.000e+00 
add2_i\[7\] I *L 0.000e+00 *S 0.000e+00 0.000e+00 
add2_i\[6\] I *L 0.000e+00 *S 0.000e+00 0.000e+00 
add2_i\[5\] I *L 0.000e+00 *S 0.000e+00 0.000e+00 
add2_i\[4\] I *L 0.000e+00 *S 0.000e+00 0.000e+00 
add2_i\[3\] I *L 0.000e+00 *S 0.000e+00 0.000e+00 
add2_i\[2\] I *L 0.000e+00 *S 0.000e+00 0.000e+00 
add2_i\[1\] I *L 0.000e+00 *S 0.000e+00 0.000e+00 
add2_i\[0\] I *L 0.000e+00 *S 0.000e+00 0.000e+00 
result_o\[32\] O *L 1.000e-01 *S 1.851e-03 1.752e-03 
result_o\[31\] O *L 1.000e-01 *S 2.769e-03 1.850e-03 
result_o\[30\] O *L 1.000e-01 *S 2.769e-03 1.850e-03 
result_o\[29\] O *L 1.000e-01 *S 2.769e-03 1.850e-03 
result_o\[28\] O *L 1.000e-01 *S 2.769e-03 1.850e-03 
result_o\[27\] O *L 1.000e-01 *S 2.769e-03 1.850e-03 
result_o\[26\] O *L 1.000e-01 *S 2.769e-03 1.850e-03 
result_o\[25\] O *L 1.000e-01 *S 2.769e-03 1.850e-03 
result_o\[24\] O *L 1.000e-01 *S 2.769e-03 1.850e-03 
result_o\[23\] O *L 1.000e-01 *S 2.769e-03 1.850e-03 
result_o\[22\] O *L 1.000e-01 *S 2.769e-03 1.850e-03 
result_o\[21\] O *L 1.000e-01 *S 2.769e-03 1.850e-03 
result_o\[20\] O *L 1.000e-01 *S 2.769e-03 1.850e-03 
result_o\[19\] O *L 1.000e-01 *S 2.769e-03 1.850e-03 
result_o\[18\] O *L 1.000e-01 *S 2.769e-03 1.850e-03 
result_o\[17\] O *L 1.000e-01 *S 2.769e-03 1.850e-03 
result_o\[16\] O *L 1.000e-01 *S 2.769e-03 1.850e-03 
result_o\[15\] O *L 1.000e-01 *S 2.769e-03 1.850e-03 
result_o\[14\] O *L 1.000e-01 *S 2.769e-03 1.850e-03 
result_o\[13\] O *L 1.000e-01 *S 2.769e-03 1.850e-03 
result_o\[12\] O *L 1.000e-01 *S 2.769e-03 1.850e-03 
result_o\[11\] O *L 1.000e-01 *S 2.769e-03 1.850e-03 
result_o\[10\] O *L 1.000e-01 *S 2.769e-03 1.850e-03 
result_o\[9\] O *L 1.000e-01 *S 2.769e-03 1.850e-03 
result_o\[8\] O *L 1.000e-01 *S 2.769e-03 1.850e-03 
result_o\[7\] O *L 1.000e-01 *S 1.262e-03 1.189e-03 
result_o\[6\] O *L 1.000e-01 *S 1.262e-03 1.189e-03 
result_o\[5\] O *L 1.000e-01 *S 1.262e-03 1.189e-03 
result_o\[4\] O *L 1.000e-01 *S 1.262e-03 1.189e-03 
result_o\[3\] O *L 1.000e-01 *S 1.262e-03 1.189e-03 
result_o\[2\] O *L 1.000e-01 *S 1.262e-03 1.189e-03 
result_o\[1\] O *L 1.000e-01 *S 1.262e-03 1.189e-03 
result_o\[0\] O *L 1.000e-01 *S 1.262e-03 1.189e-03 

*R_NET add1_i\[31\] 4.751e+00
*DRIVER add1_i\[31\]
*CELL NULL
*C2_R1_C1 2.375e+00 1.407e-02 2.375e+00 
*LOADS
*RC U165:A 1.686e-02
*RC U194:A2 1.656e-02
*END

*R_NET add1_i\[30\] 4.623e+00
*DRIVER add1_i\[30\]
*CELL NULL
*C2_R1_C1 2.312e+00 1.407e-02 2.312e+00 
*LOADS
*RC U167:A 1.686e-02
*RC U197:A1 1.566e-02
*END

*R_NET add1_i\[29\] 4.623e+00
*DRIVER add1_i\[29\]
*CELL NULL
*C2_R1_C1 2.312e+00 1.407e-02 2.312e+00 
*LOADS
*RC U153:A 1.686e-02
*RC U201:A1 1.566e-02
*END

*R_NET add1_i\[28\] 4.623e+00
*DRIVER add1_i\[28\]
*CELL NULL
*C2_R1_C1 2.312e+00 1.407e-02 2.312e+00 
*LOADS
*RC U161:A 1.686e-02
*RC U228:A1 1.566e-02
*END

*R_NET add1_i\[27\] 4.623e+00
*DRIVER add1_i\[27\]
*CELL NULL
*C2_R1_C1 2.312e+00 1.407e-02 2.312e+00 
*LOADS
*RC U154:A 1.686e-02
*RC U214:A1 1.566e-02
*END

*R_NET add1_i\[26\] 4.623e+00
*DRIVER add1_i\[26\]
*CELL NULL
*C2_R1_C1 2.312e+00 1.407e-02 2.312e+00 
*LOADS
*RC U142:A 1.686e-02
*RC U215:A1 1.566e-02
*END

*R_NET add1_i\[25\] 5.649e+00
*DRIVER add1_i\[25\]
*CELL NULL
*C2_R1_C1 2.825e+00 1.407e-02 2.825e+00 
*LOADS
*RC U206:A1 1.566e-02
*RC U111:B 2.408e-02
*END

*R_NET add1_i\[24\] 4.623e+00
*DRIVER add1_i\[24\]
*CELL NULL
*C2_R1_C1 2.312e+00 1.407e-02 2.312e+00 
*LOADS
*RC U143:A 1.686e-02
*RC U230:A1 1.566e-02
*END

*R_NET add1_i\[23\] 4.623e+00
*DRIVER add1_i\[23\]
*CELL NULL
*C2_R1_C1 2.312e+00 1.407e-02 2.312e+00 
*LOADS
*RC U144:A 1.686e-02
*RC U216:A1 1.566e-02
*END

*R_NET add1_i\[22\] 4.623e+00
*DRIVER add1_i\[22\]
*CELL NULL
*C2_R1_C1 2.312e+00 1.407e-02 2.312e+00 
*LOADS
*RC U147:A 1.686e-02
*RC U220:A1 1.566e-02
*END

*R_NET add1_i\[21\] 4.623e+00
*DRIVER add1_i\[21\]
*CELL NULL
*C2_R1_C1 2.312e+00 1.407e-02 2.312e+00 
*LOADS
*RC U148:A 1.686e-02
*RC U224:A1 1.566e-02
*END

*R_NET add1_i\[20\] 4.623e+00
*DRIVER add1_i\[20\]
*CELL NULL
*C2_R1_C1 2.312e+00 1.407e-02 2.312e+00 
*LOADS
*RC U151:A 1.686e-02
*RC U233:A1 1.566e-02
*END

*R_NET add1_i\[19\] 4.623e+00
*DRIVER add1_i\[19\]
*CELL NULL
*C2_R1_C1 2.312e+00 1.407e-02 2.312e+00 
*LOADS
*RC U152:A 1.686e-02
*RC U207:A1 1.566e-02
*END

*R_NET add1_i\[18\] 4.623e+00
*DRIVER add1_i\[18\]
*CELL NULL
*C2_R1_C1 2.312e+00 1.407e-02 2.312e+00 
*LOADS
*RC U159:A 1.686e-02
*RC U198:A1 1.566e-02
*END

*R_NET add1_i\[17\] 4.623e+00
*DRIVER add1_i\[17\]
*CELL NULL
*C2_R1_C1 2.312e+00 1.407e-02 2.312e+00 
*LOADS
*RC U160:A 1.686e-02
*RC U208:A1 1.566e-02
*END

*R_NET add1_i\[16\] 4.623e+00
*DRIVER add1_i\[16\]
*CELL NULL
*C2_R1_C1 2.312e+00 1.407e-02 2.312e+00 
*LOADS
*RC U171:A 1.686e-02
*RC U209:A1 1.566e-02
*END

*R_NET add1_i\[15\] 4.623e+00
*DRIVER add1_i\[15\]
*CELL NULL
*C2_R1_C1 2.312e+00 1.407e-02 2.312e+00 
*LOADS
*RC U166:A 1.686e-02
*RC U221:A1 1.566e-02
*END

*R_NET add1_i\[14\] 4.623e+00
*DRIVER add1_i\[14\]
*CELL NULL
*C2_R1_C1 2.312e+00 1.407e-02 2.312e+00 
*LOADS
*RC U174:A 1.686e-02
*RC U226:A1 1.566e-02
*END

*R_NET add1_i\[13\] 4.623e+00
*DRIVER add1_i\[13\]
*CELL NULL
*C2_R1_C1 2.312e+00 1.407e-02 2.312e+00 
*LOADS
*RC U175:A 1.686e-02
*RC U222:A1 1.566e-02
*END

*R_NET add1_i\[12\] 5.777e+00
*DRIVER add1_i\[12\]
*CELL NULL
*C2_R1_C1 2.888e+00 1.407e-02 2.888e+00 
*LOADS
*RC U192:A2 1.656e-02
*RC U137:B 2.408e-02
*END

*R_NET add1_i\[11\] 5.649e+00
*DRIVER add1_i\[11\]
*CELL NULL
*C2_R1_C1 2.825e+00 1.407e-02 2.825e+00 
*LOADS
*RC U184:A1 1.566e-02
*RC U139:B 2.408e-02
*END

*R_NET add1_i\[10\] 5.649e+00
*DRIVER add1_i\[10\]
*CELL NULL
*C2_R1_C1 2.825e+00 1.407e-02 2.825e+00 
*LOADS
*RC U176:A1 1.566e-02
*RC U141:B 2.408e-02
*END

*R_NET add1_i\[9\] 7.213e+00
*DRIVER add1_i\[9\]
*CELL NULL
*C2_R1_C1 3.606e+00 2.308e-02 3.606e+00 
*LOADS
*RC U246:A2 1.152e-02
*RC U245:A1 1.738e-02
*RC U96:B 2.659e-02
*END

*R_NET add1_i\[8\] 5.449e+00
*DRIVER add1_i\[8\]
*CELL NULL
*C2_R1_C1 2.725e+00 1.407e-02 2.725e+00 
*LOADS
*RC U188:A1 1.538e-02
*RC U199:B 2.296e-02
*END

*R_NET add1_i\[7\] 6.160e+00
*DRIVER add1_i\[7\]
*CELL NULL
*C2_R1_C1 3.080e+00 2.308e-02 3.080e+00 
*LOADS
*RC U187:A2 1.152e-02
*RC U188:A2 1.751e-02
*RC U196:A2 1.836e-02
*END

*R_NET add1_i\[6\] 1.454e+00
*DRIVER add1_i\[6\]
*CELL NULL
*C2_R1_C1 7.272e-01 6.236e-03 7.272e-01 
*LOADS
*RC U183:A1 9.069e-03
*END

*R_NET add1_i\[5\] 1.454e+00
*DRIVER add1_i\[5\]
*CELL NULL
*C2_R1_C1 7.272e-01 6.236e-03 7.272e-01 
*LOADS
*RC U182:A1 9.069e-03
*END

*R_NET add1_i\[4\] 1.454e+00
*DRIVER add1_i\[4\]
*CELL NULL
*C2_R1_C1 7.272e-01 6.236e-03 7.272e-01 
*LOADS
*RC U181:A1 9.069e-03
*END

*R_NET add1_i\[3\] 1.454e+00
*DRIVER add1_i\[3\]
*CELL NULL
*C2_R1_C1 7.272e-01 6.236e-03 7.272e-01 
*LOADS
*RC U180:A1 9.069e-03
*END

*R_NET add1_i\[2\] 1.454e+00
*DRIVER add1_i\[2\]
*CELL NULL
*C2_R1_C1 7.272e-01 6.236e-03 7.272e-01 
*LOADS
*RC U179:A1 9.069e-03
*END

*R_NET add1_i\[1\] 1.454e+00
*DRIVER add1_i\[1\]
*CELL NULL
*C2_R1_C1 7.272e-01 6.236e-03 7.272e-01 
*LOADS
*RC U178:A1 9.069e-03
*END

*R_NET add1_i\[0\] 1.454e+00
*DRIVER add1_i\[0\]
*CELL NULL
*C2_R1_C1 7.272e-01 6.236e-03 7.272e-01 
*LOADS
*RC U177:A1 9.069e-03
*END

*R_NET add2_i\[31\] 5.347e+00
*DRIVER add2_i\[31\]
*CELL NULL
*C2_R1_C1 2.674e+00 1.407e-02 2.674e+00 
*LOADS
*RC U237:A1 1.566e-02
*RC U98:A 2.195e-02
*END

*R_NET add2_i\[30\] 5.347e+00
*DRIVER add2_i\[30\]
*CELL NULL
*C2_R1_C1 2.674e+00 1.407e-02 2.674e+00 
*LOADS
*RC U251:A1 1.566e-02
*RC U100:A 2.195e-02
*END

*R_NET add2_i\[29\] 5.347e+00
*DRIVER add2_i\[29\]
*CELL NULL
*C2_R1_C1 2.674e+00 1.407e-02 2.674e+00 
*LOADS
*RC U250:A1 1.566e-02
*RC U102:A 2.195e-02
*END

*R_NET add2_i\[28\] 5.347e+00
*DRIVER add2_i\[28\]
*CELL NULL
*C2_R1_C1 2.674e+00 1.407e-02 2.674e+00 
*LOADS
*RC U229:A1 1.566e-02
*RC U104:A 2.195e-02
*END

*R_NET add2_i\[27\] 5.347e+00
*DRIVER add2_i\[27\]
*CELL NULL
*C2_R1_C1 2.674e+00 1.407e-02 2.674e+00 
*LOADS
*RC U253:A1 1.566e-02
*RC U106:A 2.195e-02
*END

*R_NET add2_i\[26\] 5.347e+00
*DRIVER add2_i\[26\]
*CELL NULL
*C2_R1_C1 2.674e+00 1.407e-02 2.674e+00 
*LOADS
*RC U252:A1 1.566e-02
*RC U108:A 2.195e-02
*END

*R_NET add2_i\[25\] 5.347e+00
*DRIVER add2_i\[25\]
*CELL NULL
*C2_R1_C1 2.674e+00 1.407e-02 2.674e+00 
*LOADS
*RC U239:A1 1.566e-02
*RC U110:A 2.195e-02
*END

*R_NET add2_i\[24\] 5.347e+00
*DRIVER add2_i\[24\]
*CELL NULL
*C2_R1_C1 2.674e+00 1.407e-02 2.674e+00 
*LOADS
*RC U231:A1 1.566e-02
*RC U112:A 2.195e-02
*END

*R_NET add2_i\[23\] 5.347e+00
*DRIVER add2_i\[23\]
*CELL NULL
*C2_R1_C1 2.674e+00 1.407e-02 2.674e+00 
*LOADS
*RC U255:A1 1.566e-02
*RC U114:A 2.195e-02
*END

*R_NET add2_i\[22\] 5.347e+00
*DRIVER add2_i\[22\]
*CELL NULL
*C2_R1_C1 2.674e+00 1.407e-02 2.674e+00 
*LOADS
*RC U254:A1 1.566e-02
*RC U116:A 2.195e-02
*END

*R_NET add2_i\[21\] 5.347e+00
*DRIVER add2_i\[21\]
*CELL NULL
*C2_R1_C1 2.674e+00 1.407e-02 2.674e+00 
*LOADS
*RC U241:A1 1.566e-02
*RC U118:A 2.195e-02
*END

*R_NET add2_i\[20\] 5.347e+00
*DRIVER add2_i\[20\]
*CELL NULL
*C2_R1_C1 2.674e+00 1.407e-02 2.674e+00 
*LOADS
*RC U257:A1 1.566e-02
*RC U120:A 2.195e-02
*END

*R_NET add2_i\[19\] 5.347e+00
*DRIVER add2_i\[19\]
*CELL NULL
*C2_R1_C1 2.674e+00 1.407e-02 2.674e+00 
*LOADS
*RC U256:A1 1.566e-02
*RC U122:A 2.195e-02
*END

*R_NET add2_i\[18\] 5.347e+00
*DRIVER add2_i\[18\]
*CELL NULL
*C2_R1_C1 2.674e+00 1.407e-02 2.674e+00 
*LOADS
*RC U243:A1 1.566e-02
*RC U124:A 2.195e-02
*END

*R_NET add2_i\[17\] 5.347e+00
*DRIVER add2_i\[17\]
*CELL NULL
*C2_R1_C1 2.674e+00 1.407e-02 2.674e+00 
*LOADS
*RC U259:A1 1.566e-02
*RC U126:A 2.195e-02
*END

*R_NET add2_i\[16\] 5.347e+00
*DRIVER add2_i\[16\]
*CELL NULL
*C2_R1_C1 2.674e+00 1.407e-02 2.674e+00 
*LOADS
*RC U258:A1 1.566e-02
*RC U128:A 2.195e-02
*END

*R_NET add2_i\[15\] 5.347e+00
*DRIVER add2_i\[15\]
*CELL NULL
*C2_R1_C1 2.674e+00 1.407e-02 2.674e+00 
*LOADS
*RC U244:A1 1.566e-02
*RC U130:A 2.195e-02
*END

*R_NET add2_i\[14\] 5.347e+00
*DRIVER add2_i\[14\]
*CELL NULL
*C2_R1_C1 2.674e+00 1.407e-02 2.674e+00 
*LOADS
*RC U261:A1 1.566e-02
*RC U132:A 2.195e-02
*END

*R_NET add2_i\[13\] 5.347e+00
*DRIVER add2_i\[13\]
*CELL NULL
*C2_R1_C1 2.674e+00 1.407e-02 2.674e+00 
*LOADS
*RC U260:A1 1.566e-02
*RC U134:A 2.195e-02
*END

*R_NET add2_i\[12\] 5.649e+00
*DRIVER add2_i\[12\]
*CELL NULL
*C2_R1_C1 2.825e+00 1.407e-02 2.825e+00 
*LOADS
*RC U235:A1 1.566e-02
*RC U136:B 2.408e-02
*END

*R_NET add2_i\[11\] 5.649e+00
*DRIVER add2_i\[11\]
*CELL NULL
*C2_R1_C1 2.825e+00 1.407e-02 2.825e+00 
*LOADS
*RC U248:A1 1.566e-02
*RC U138:B 2.408e-02
*END

*R_NET add2_i\[10\] 5.649e+00
*DRIVER add2_i\[10\]
*CELL NULL
*C2_R1_C1 2.825e+00 1.407e-02 2.825e+00 
*LOADS
*RC U249:A1 1.566e-02
*RC U140:B 2.408e-02
*END

*R_NET add2_i\[9\] 5.475e+00
*DRIVER add2_i\[9\]
*CELL NULL
*C2_R1_C1 2.737e+00 1.407e-02 2.737e+00 
*LOADS
*RC U191:A2 1.656e-02
*RC U96:A 2.195e-02
*END

*R_NET add2_i\[8\] 5.475e+00
*DRIVER add2_i\[8\]
*CELL NULL
*C2_R1_C1 2.737e+00 1.407e-02 2.737e+00 
*LOADS
*RC U247:A2 1.656e-02
*RC U97:A 2.195e-02
*END

*R_NET add2_i\[7\] 6.152e+00
*DRIVER add2_i\[7\]
*CELL NULL
*C2_R1_C1 3.076e+00 2.308e-02 3.076e+00 
*LOADS
*RC U187:A1 1.175e-02
*RC U188:A3 1.820e-02
*RC U196:A1 1.738e-02
*END

*R_NET add2_i\[6\] 1.426e+00
*DRIVER add2_i\[6\]
*CELL NULL
*C2_R1_C1 7.128e-01 6.236e-03 7.128e-01 
*LOADS
*RC U183:A2 8.889e-03
*END

*R_NET add2_i\[5\] 1.426e+00
*DRIVER add2_i\[5\]
*CELL NULL
*C2_R1_C1 7.128e-01 6.236e-03 7.128e-01 
*LOADS
*RC U182:A2 8.889e-03
*END

*R_NET add2_i\[4\] 1.426e+00
*DRIVER add2_i\[4\]
*CELL NULL
*C2_R1_C1 7.128e-01 6.236e-03 7.128e-01 
*LOADS
*RC U181:A2 8.889e-03
*END

*R_NET add2_i\[3\] 1.426e+00
*DRIVER add2_i\[3\]
*CELL NULL
*C2_R1_C1 7.128e-01 6.236e-03 7.128e-01 
*LOADS
*RC U180:A2 8.889e-03
*END

*R_NET add2_i\[2\] 1.426e+00
*DRIVER add2_i\[2\]
*CELL NULL
*C2_R1_C1 7.128e-01 6.236e-03 7.128e-01 
*LOADS
*RC U179:A2 8.889e-03
*END

*R_NET add2_i\[1\] 1.426e+00
*DRIVER add2_i\[1\]
*CELL NULL
*C2_R1_C1 7.128e-01 6.236e-03 7.128e-01 
*LOADS
*RC U178:A2 8.889e-03
*END

*R_NET add2_i\[0\] 1.426e+00
*DRIVER add2_i\[0\]
*CELL NULL
*C2_R1_C1 7.128e-01 6.236e-03 7.128e-01 
*LOADS
*RC U177:A2 8.889e-03
*END

*R_NET result_o\[32\] 4.097e-01
*DRIVER U236:ZN
*CELL NAND2_X1
*C2_R1_C1 2.049e-01 6.236e-03 2.049e-01 
*LOADS
*RC result_o\[32\] 2.555e-03
*END

*R_NET result_o\[31\] 4.097e-01
*DRIVER U98:Z
*CELL XOR2_X1
*C2_R1_C1 2.049e-01 6.236e-03 2.049e-01 
*LOADS
*RC result_o\[31\] 2.555e-03
*END

*R_NET result_o\[30\] 4.097e-01
*DRIVER U100:Z
*CELL XOR2_X1
*C2_R1_C1 2.049e-01 6.236e-03 2.049e-01 
*LOADS
*RC result_o\[30\] 2.555e-03
*END

*R_NET result_o\[29\] 4.097e-01
*DRIVER U102:Z
*CELL XOR2_X1
*C2_R1_C1 2.049e-01 6.236e-03 2.049e-01 
*LOADS
*RC result_o\[29\] 2.555e-03
*END

*R_NET result_o\[28\] 4.097e-01
*DRIVER U104:Z
*CELL XOR2_X1
*C2_R1_C1 2.049e-01 6.236e-03 2.049e-01 
*LOADS
*RC result_o\[28\] 2.555e-03
*END

*R_NET result_o\[27\] 4.097e-01
*DRIVER U106:Z
*CELL XOR2_X1
*C2_R1_C1 2.049e-01 6.236e-03 2.049e-01 
*LOADS
*RC result_o\[27\] 2.555e-03
*END

*R_NET result_o\[26\] 4.097e-01
*DRIVER U108:Z
*CELL XOR2_X1
*C2_R1_C1 2.049e-01 6.236e-03 2.049e-01 
*LOADS
*RC result_o\[26\] 2.555e-03
*END

*R_NET result_o\[25\] 4.097e-01
*DRIVER U110:Z
*CELL XOR2_X1
*C2_R1_C1 2.049e-01 6.236e-03 2.049e-01 
*LOADS
*RC result_o\[25\] 2.555e-03
*END

*R_NET result_o\[24\] 4.097e-01
*DRIVER U112:Z
*CELL XOR2_X1
*C2_R1_C1 2.049e-01 6.236e-03 2.049e-01 
*LOADS
*RC result_o\[24\] 2.555e-03
*END

*R_NET result_o\[23\] 4.097e-01
*DRIVER U114:Z
*CELL XOR2_X1
*C2_R1_C1 2.049e-01 6.236e-03 2.049e-01 
*LOADS
*RC result_o\[23\] 2.555e-03
*END

*R_NET result_o\[22\] 4.097e-01
*DRIVER U116:Z
*CELL XOR2_X1
*C2_R1_C1 2.049e-01 6.236e-03 2.049e-01 
*LOADS
*RC result_o\[22\] 2.555e-03
*END

*R_NET result_o\[21\] 4.097e-01
*DRIVER U118:Z
*CELL XOR2_X1
*C2_R1_C1 2.049e-01 6.236e-03 2.049e-01 
*LOADS
*RC result_o\[21\] 2.555e-03
*END

*R_NET result_o\[20\] 4.097e-01
*DRIVER U120:Z
*CELL XOR2_X1
*C2_R1_C1 2.049e-01 6.236e-03 2.049e-01 
*LOADS
*RC result_o\[20\] 2.555e-03
*END

*R_NET result_o\[19\] 4.097e-01
*DRIVER U122:Z
*CELL XOR2_X1
*C2_R1_C1 2.049e-01 6.236e-03 2.049e-01 
*LOADS
*RC result_o\[19\] 2.555e-03
*END

*R_NET result_o\[18\] 4.097e-01
*DRIVER U124:Z
*CELL XOR2_X1
*C2_R1_C1 2.049e-01 6.236e-03 2.049e-01 
*LOADS
*RC result_o\[18\] 2.555e-03
*END

*R_NET result_o\[17\] 4.097e-01
*DRIVER U126:Z
*CELL XOR2_X1
*C2_R1_C1 2.049e-01 6.236e-03 2.049e-01 
*LOADS
*RC result_o\[17\] 2.555e-03
*END

*R_NET result_o\[16\] 4.097e-01
*DRIVER U128:Z
*CELL XOR2_X1
*C2_R1_C1 2.049e-01 6.236e-03 2.049e-01 
*LOADS
*RC result_o\[16\] 2.555e-03
*END

*R_NET result_o\[15\] 4.097e-01
*DRIVER U130:Z
*CELL XOR2_X1
*C2_R1_C1 2.049e-01 6.236e-03 2.049e-01 
*LOADS
*RC result_o\[15\] 2.555e-03
*END

*R_NET result_o\[14\] 4.097e-01
*DRIVER U132:Z
*CELL XOR2_X1
*C2_R1_C1 2.049e-01 6.236e-03 2.049e-01 
*LOADS
*RC result_o\[14\] 2.555e-03
*END

*R_NET result_o\[13\] 4.097e-01
*DRIVER U134:Z
*CELL XOR2_X1
*C2_R1_C1 2.049e-01 6.236e-03 2.049e-01 
*LOADS
*RC result_o\[13\] 2.555e-03
*END

*R_NET result_o\[12\] 4.097e-01
*DRIVER U136:Z
*CELL XOR2_X1
*C2_R1_C1 2.049e-01 6.236e-03 2.049e-01 
*LOADS
*RC result_o\[12\] 2.555e-03
*END

*R_NET result_o\[11\] 4.097e-01
*DRIVER U138:Z
*CELL XOR2_X1
*C2_R1_C1 2.049e-01 6.236e-03 2.049e-01 
*LOADS
*RC result_o\[11\] 2.555e-03
*END

*R_NET result_o\[10\] 4.097e-01
*DRIVER U140:Z
*CELL XOR2_X1
*C2_R1_C1 2.049e-01 6.236e-03 2.049e-01 
*LOADS
*RC result_o\[10\] 2.555e-03
*END

*R_NET result_o\[9\] 4.097e-01
*DRIVER U95:Z
*CELL XOR2_X1
*C2_R1_C1 2.049e-01 6.236e-03 2.049e-01 
*LOADS
*RC result_o\[9\] 2.555e-03
*END

*R_NET result_o\[8\] 4.097e-01
*DRIVER U97:Z
*CELL XOR2_X1
*C2_R1_C1 2.049e-01 6.236e-03 2.049e-01 
*LOADS
*RC result_o\[8\] 2.555e-03
*END

*R_NET result_o\[7\] 4.097e-01
*DRIVER U187:ZN
*CELL OR2_X1
*C2_R1_C1 2.049e-01 6.236e-03 2.049e-01 
*LOADS
*RC result_o\[7\] 2.555e-03
*END

*R_NET result_o\[6\] 4.097e-01
*DRIVER U183:ZN
*CELL OR2_X1
*C2_R1_C1 2.049e-01 6.236e-03 2.049e-01 
*LOADS
*RC result_o\[6\] 2.555e-03
*END

*R_NET result_o\[5\] 4.097e-01
*DRIVER U182:ZN
*CELL OR2_X1
*C2_R1_C1 2.049e-01 6.236e-03 2.049e-01 
*LOADS
*RC result_o\[5\] 2.555e-03
*END

*R_NET result_o\[4\] 4.097e-01
*DRIVER U181:ZN
*CELL OR2_X1
*C2_R1_C1 2.049e-01 6.236e-03 2.049e-01 
*LOADS
*RC result_o\[4\] 2.555e-03
*END

*R_NET result_o\[3\] 4.097e-01
*DRIVER U180:ZN
*CELL OR2_X1
*C2_R1_C1 2.049e-01 6.236e-03 2.049e-01 
*LOADS
*RC result_o\[3\] 2.555e-03
*END

*R_NET result_o\[2\] 4.097e-01
*DRIVER U179:ZN
*CELL OR2_X1
*C2_R1_C1 2.049e-01 6.236e-03 2.049e-01 
*LOADS
*RC result_o\[2\] 2.555e-03
*END

*R_NET result_o\[1\] 4.097e-01
*DRIVER U178:ZN
*CELL OR2_X1
*C2_R1_C1 2.049e-01 6.236e-03 2.049e-01 
*LOADS
*RC result_o\[1\] 2.555e-03
*END

*R_NET result_o\[0\] 4.097e-01
*DRIVER U177:ZN
*CELL OR2_X1
*C2_R1_C1 2.049e-01 6.236e-03 2.049e-01 
*LOADS
*RC result_o\[0\] 2.555e-03
*END

*R_NET n101 7.067e+00
*DRIVER U202:ZN
*CELL NAND2_X1
*C2_R1_C1 3.533e+00 2.308e-02 3.533e+00 
*LOADS
*RC U246:A1 1.175e-02
*RC U245:A2 1.836e-02
*RC U95:A 2.426e-02
*END

*R_NET n102 3.383e+00
*DRIVER U96:Z
*CELL XOR2_X1
*C2_R1_C1 1.692e+00 6.236e-03 1.692e+00 
*LOADS
*RC U95:B 2.110e-02
*END

*R_NET n103 5.649e+00
*DRIVER U199:ZN
*CELL XNOR2_X1
*C2_R1_C1 2.825e+00 1.407e-02 2.825e+00 
*LOADS
*RC U97:B 2.408e-02
*RC U247:A1 1.566e-02
*END

*R_NET n104 2.187e+00
*DRIVER U194:ZN
*CELL NAND2_X1
*C2_R1_C1 1.093e+00 6.236e-03 1.093e+00 
*LOADS
*RC U236:A1 1.364e-02
*END

*R_NET n105 2.314e+00
*DRIVER U237:ZN
*CELL NAND2_X1
*C2_R1_C1 1.157e+00 6.236e-03 1.157e+00 
*LOADS
*RC U236:A2 1.443e-02
*END

*R_NET n106 5.777e+00
*DRIVER U173:ZN
*CELL XNOR2_X1
*C2_R1_C1 2.888e+00 1.407e-02 2.888e+00 
*LOADS
*RC U237:A2 1.656e-02
*RC U98:B 2.408e-02
*END

*R_NET n107 5.372e+00
*DRIVER U195:ZN
*CELL NAND2_X1
*C2_R1_C1 2.686e+00 1.407e-02 2.686e+00 
*LOADS
*RC U173:A 2.213e-02
*RC U194:A1 1.566e-02
*END

*R_NET n108 2.314e+00
*DRIVER U197:ZN
*CELL NAND2_X1
*C2_R1_C1 1.157e+00 6.236e-03 1.157e+00 
*LOADS
*RC U195:A2 1.443e-02
*END

*R_NET n109 2.187e+00
*DRIVER U251:ZN
*CELL NAND2_X1
*C2_R1_C1 1.093e+00 6.236e-03 1.093e+00 
*LOADS
*RC U195:A1 1.364e-02
*END

*R_NET n110 5.777e+00
*DRIVER U169:ZN
*CELL XNOR2_X1
*C2_R1_C1 2.888e+00 1.407e-02 2.888e+00 
*LOADS
*RC U251:A2 1.656e-02
*RC U100:B 2.408e-02
*END

*R_NET n111 5.500e+00
*DRIVER U200:ZN
*CELL NAND2_X1
*C2_R1_C1 2.750e+00 1.407e-02 2.750e+00 
*LOADS
*RC U169:A 2.213e-02
*RC U197:A2 1.656e-02
*END

*R_NET n112 2.187e+00
*DRIVER U201:ZN
*CELL NAND2_X1
*C2_R1_C1 1.093e+00 6.236e-03 1.093e+00 
*LOADS
*RC U200:A1 1.364e-02
*END

*R_NET n113 2.314e+00
*DRIVER U250:ZN
*CELL NAND2_X1
*C2_R1_C1 1.157e+00 6.236e-03 1.157e+00 
*LOADS
*RC U200:A2 1.443e-02
*END

*R_NET n114 5.777e+00
*DRIVER U155:ZN
*CELL XNOR2_X1
*C2_R1_C1 2.888e+00 1.407e-02 2.888e+00 
*LOADS
*RC U250:A2 1.656e-02
*RC U102:B 2.408e-02
*END

*R_NET n115 5.500e+00
*DRIVER U205:ZN
*CELL NAND2_X1
*C2_R1_C1 2.750e+00 1.407e-02 2.750e+00 
*LOADS
*RC U155:A 2.213e-02
*RC U201:A2 1.656e-02
*END

*R_NET n116 2.187e+00
*DRIVER U228:ZN
*CELL NAND2_X1
*C2_R1_C1 1.093e+00 6.236e-03 1.093e+00 
*LOADS
*RC U205:A1 1.364e-02
*END

*R_NET n117 2.314e+00
*DRIVER U229:ZN
*CELL NAND2_X1
*C2_R1_C1 1.157e+00 6.236e-03 1.157e+00 
*LOADS
*RC U205:A2 1.443e-02
*END

*R_NET n118 5.777e+00
*DRIVER U163:ZN
*CELL XNOR2_X1
*C2_R1_C1 2.888e+00 1.407e-02 2.888e+00 
*LOADS
*RC U229:A2 1.656e-02
*RC U104:B 2.408e-02
*END

*R_NET n119 5.500e+00
*DRIVER U238:ZN
*CELL NAND2_X1
*C2_R1_C1 2.750e+00 1.407e-02 2.750e+00 
*LOADS
*RC U163:A 2.213e-02
*RC U228:A2 1.656e-02
*END

*R_NET n120 2.187e+00
*DRIVER U214:ZN
*CELL NAND2_X1
*C2_R1_C1 1.093e+00 6.236e-03 1.093e+00 
*LOADS
*RC U238:A1 1.364e-02
*END

*R_NET n121 2.314e+00
*DRIVER U253:ZN
*CELL NAND2_X1
*C2_R1_C1 1.157e+00 6.236e-03 1.157e+00 
*LOADS
*RC U238:A2 1.443e-02
*END

*R_NET n122 5.777e+00
*DRIVER U157:ZN
*CELL XNOR2_X1
*C2_R1_C1 2.888e+00 1.407e-02 2.888e+00 
*LOADS
*RC U253:A2 1.656e-02
*RC U106:B 2.408e-02
*END

*R_NET n123 5.500e+00
*DRIVER U217:ZN
*CELL NAND2_X1
*C2_R1_C1 2.750e+00 1.407e-02 2.750e+00 
*LOADS
*RC U157:A 2.213e-02
*RC U214:A2 1.656e-02
*END

*R_NET n124 2.187e+00
*DRIVER U215:ZN
*CELL NAND2_X1
*C2_R1_C1 1.093e+00 6.236e-03 1.093e+00 
*LOADS
*RC U217:A1 1.364e-02
*END

*R_NET n125 2.314e+00
*DRIVER U252:ZN
*CELL NAND2_X1
*C2_R1_C1 1.157e+00 6.236e-03 1.157e+00 
*LOADS
*RC U217:A2 1.443e-02
*END

*R_NET n126 5.777e+00
*DRIVER U146:ZN
*CELL XNOR2_X1
*C2_R1_C1 2.888e+00 1.407e-02 2.888e+00 
*LOADS
*RC U252:A2 1.656e-02
*RC U108:B 2.408e-02
*END

*R_NET n127 5.500e+00
*DRIVER U218:ZN
*CELL NAND2_X1
*C2_R1_C1 2.750e+00 1.407e-02 2.750e+00 
*LOADS
*RC U146:A 2.213e-02
*RC U215:A2 1.656e-02
*END

*R_NET n128 2.187e+00
*DRIVER U206:ZN
*CELL NAND2_X1
*C2_R1_C1 1.093e+00 6.236e-03 1.093e+00 
*LOADS
*RC U218:A1 1.364e-02
*END

*R_NET n129 2.314e+00
*DRIVER U239:ZN
*CELL NAND2_X1
*C2_R1_C1 1.157e+00 6.236e-03 1.157e+00 
*LOADS
*RC U218:A2 1.443e-02
*END

*R_NET n130 5.777e+00
*DRIVER U111:Z
*CELL XOR2_X1
*C2_R1_C1 2.888e+00 1.407e-02 2.888e+00 
*LOADS
*RC U239:A2 1.656e-02
*RC U110:B 2.408e-02
*END

*R_NET n131 5.475e+00
*DRIVER U211:ZN
*CELL NAND2_X1
*C2_R1_C1 2.737e+00 1.407e-02 2.737e+00 
*LOADS
*RC U206:A2 1.656e-02
*RC U111:A 2.195e-02
*END

*R_NET n132 2.187e+00
*DRIVER U230:ZN
*CELL NAND2_X1
*C2_R1_C1 1.093e+00 6.236e-03 1.093e+00 
*LOADS
*RC U211:A1 1.364e-02
*END

*R_NET n133 2.314e+00
*DRIVER U231:ZN
*CELL NAND2_X1
*C2_R1_C1 1.157e+00 6.236e-03 1.157e+00 
*LOADS
*RC U211:A2 1.443e-02
*END

*R_NET n134 5.777e+00
*DRIVER U150:ZN
*CELL XNOR2_X1
*C2_R1_C1 2.888e+00 1.407e-02 2.888e+00 
*LOADS
*RC U231:A2 1.656e-02
*RC U112:B 2.408e-02
*END

*R_NET n135 5.500e+00
*DRIVER U240:ZN
*CELL NAND2_X1
*C2_R1_C1 2.750e+00 1.407e-02 2.750e+00 
*LOADS
*RC U150:A 2.213e-02
*RC U230:A2 1.656e-02
*END

*R_NET n136 2.187e+00
*DRIVER U216:ZN
*CELL NAND2_X1
*C2_R1_C1 1.093e+00 6.236e-03 1.093e+00 
*LOADS
*RC U240:A1 1.364e-02
*END

*R_NET n137 2.314e+00
*DRIVER U255:ZN
*CELL NAND2_X1
*C2_R1_C1 1.157e+00 6.236e-03 1.157e+00 
*LOADS
*RC U240:A2 1.443e-02
*END

*R_NET n138 5.777e+00
*DRIVER U145:ZN
*CELL XNOR2_X1
*C2_R1_C1 2.888e+00 1.407e-02 2.888e+00 
*LOADS
*RC U255:A2 1.656e-02
*RC U114:B 2.408e-02
*END

*R_NET n139 5.500e+00
*DRIVER U219:ZN
*CELL NAND2_X1
*C2_R1_C1 2.750e+00 1.407e-02 2.750e+00 
*LOADS
*RC U145:A 2.213e-02
*RC U216:A2 1.656e-02
*END

*R_NET n140 2.187e+00
*DRIVER U220:ZN
*CELL NAND2_X1
*C2_R1_C1 1.093e+00 6.236e-03 1.093e+00 
*LOADS
*RC U219:A1 1.364e-02
*END

*R_NET n141 2.314e+00
*DRIVER U254:ZN
*CELL NAND2_X1
*C2_R1_C1 1.157e+00 6.236e-03 1.157e+00 
*LOADS
*RC U219:A2 1.443e-02
*END

*R_NET n142 5.777e+00
*DRIVER U158:ZN
*CELL XNOR2_X1
*C2_R1_C1 2.888e+00 1.407e-02 2.888e+00 
*LOADS
*RC U254:A2 1.656e-02
*RC U116:B 2.408e-02
*END

*R_NET n143 5.500e+00
*DRIVER U223:ZN
*CELL NAND2_X1
*C2_R1_C1 2.750e+00 1.407e-02 2.750e+00 
*LOADS
*RC U158:A 2.213e-02
*RC U220:A2 1.656e-02
*END

*R_NET n144 2.187e+00
*DRIVER U224:ZN
*CELL NAND2_X1
*C2_R1_C1 1.093e+00 6.236e-03 1.093e+00 
*LOADS
*RC U223:A1 1.364e-02
*END

*R_NET n145 2.314e+00
*DRIVER U241:ZN
*CELL NAND2_X1
*C2_R1_C1 1.157e+00 6.236e-03 1.157e+00 
*LOADS
*RC U223:A2 1.443e-02
*END

*R_NET n146 5.777e+00
*DRIVER U149:ZN
*CELL XNOR2_X1
*C2_R1_C1 2.888e+00 1.407e-02 2.888e+00 
*LOADS
*RC U241:A2 1.656e-02
*RC U118:B 2.408e-02
*END

*R_NET n147 5.500e+00
*DRIVER U232:ZN
*CELL NAND2_X1
*C2_R1_C1 2.750e+00 1.407e-02 2.750e+00 
*LOADS
*RC U149:A 2.213e-02
*RC U224:A2 1.656e-02
*END

*R_NET n148 2.187e+00
*DRIVER U233:ZN
*CELL NAND2_X1
*C2_R1_C1 1.093e+00 6.236e-03 1.093e+00 
*LOADS
*RC U232:A1 1.364e-02
*END

*R_NET n149 2.314e+00
*DRIVER U257:ZN
*CELL NAND2_X1
*C2_R1_C1 1.157e+00 6.236e-03 1.157e+00 
*LOADS
*RC U232:A2 1.443e-02
*END

*R_NET n150 5.777e+00
*DRIVER U164:ZN
*CELL XNOR2_X1
*C2_R1_C1 2.888e+00 1.407e-02 2.888e+00 
*LOADS
*RC U257:A2 1.656e-02
*RC U120:B 2.408e-02
*END

*R_NET n151 5.500e+00
*DRIVER U242:ZN
*CELL NAND2_X1
*C2_R1_C1 2.750e+00 1.407e-02 2.750e+00 
*LOADS
*RC U164:A 2.213e-02
*RC U233:A2 1.656e-02
*END

*R_NET n152 2.187e+00
*DRIVER U207:ZN
*CELL NAND2_X1
*C2_R1_C1 1.093e+00 6.236e-03 1.093e+00 
*LOADS
*RC U242:A1 1.364e-02
*END

*R_NET n153 2.314e+00
*DRIVER U256:ZN
*CELL NAND2_X1
*C2_R1_C1 1.157e+00 6.236e-03 1.157e+00 
*LOADS
*RC U242:A2 1.443e-02
*END

*R_NET n154 5.777e+00
*DRIVER U156:ZN
*CELL XNOR2_X1
*C2_R1_C1 2.888e+00 1.407e-02 2.888e+00 
*LOADS
*RC U256:A2 1.656e-02
*RC U122:B 2.408e-02
*END

*R_NET n155 5.500e+00
*DRIVER U210:ZN
*CELL NAND2_X1
*C2_R1_C1 2.750e+00 1.407e-02 2.750e+00 
*LOADS
*RC U156:A 2.213e-02
*RC U207:A2 1.656e-02
*END

*R_NET n156 2.187e+00
*DRIVER U198:ZN
*CELL NAND2_X1
*C2_R1_C1 1.093e+00 6.236e-03 1.093e+00 
*LOADS
*RC U210:A1 1.364e-02
*END

*R_NET n157 2.314e+00
*DRIVER U243:ZN
*CELL NAND2_X1
*C2_R1_C1 1.157e+00 6.236e-03 1.157e+00 
*LOADS
*RC U210:A2 1.443e-02
*END

*R_NET n158 5.777e+00
*DRIVER U170:ZN
*CELL XNOR2_X1
*C2_R1_C1 2.888e+00 1.407e-02 2.888e+00 
*LOADS
*RC U243:A2 1.656e-02
*RC U124:B 2.408e-02
*END

*R_NET n159 5.500e+00
*DRIVER U204:ZN
*CELL NAND2_X1
*C2_R1_C1 2.750e+00 1.407e-02 2.750e+00 
*LOADS
*RC U170:A 2.213e-02
*RC U198:A2 1.656e-02
*END

*R_NET n160 2.187e+00
*DRIVER U208:ZN
*CELL NAND2_X1
*C2_R1_C1 1.093e+00 6.236e-03 1.093e+00 
*LOADS
*RC U204:A1 1.364e-02
*END

*R_NET n161 2.314e+00
*DRIVER U259:ZN
*CELL NAND2_X1
*C2_R1_C1 1.157e+00 6.236e-03 1.157e+00 
*LOADS
*RC U204:A2 1.443e-02
*END

*R_NET n162 5.777e+00
*DRIVER U162:ZN
*CELL XNOR2_X1
*C2_R1_C1 2.888e+00 1.407e-02 2.888e+00 
*LOADS
*RC U259:A2 1.656e-02
*RC U126:B 2.408e-02
*END

*R_NET n163 5.500e+00
*DRIVER U213:ZN
*CELL NAND2_X1
*C2_R1_C1 2.750e+00 1.407e-02 2.750e+00 
*LOADS
*RC U162:A 2.213e-02
*RC U208:A2 1.656e-02
*END

*R_NET n164 2.187e+00
*DRIVER U209:ZN
*CELL NAND2_X1
*C2_R1_C1 1.093e+00 6.236e-03 1.093e+00 
*LOADS
*RC U213:A1 1.364e-02
*END

*R_NET n165 2.314e+00
*DRIVER U258:ZN
*CELL NAND2_X1
*C2_R1_C1 1.157e+00 6.236e-03 1.157e+00 
*LOADS
*RC U213:A2 1.443e-02
*END

*R_NET n166 5.777e+00
*DRIVER U172:ZN
*CELL XNOR2_X1
*C2_R1_C1 2.888e+00 1.407e-02 2.888e+00 
*LOADS
*RC U258:A2 1.656e-02
*RC U128:B 2.408e-02
*END

*R_NET n167 5.500e+00
*DRIVER U212:ZN
*CELL NAND2_X1
*C2_R1_C1 2.750e+00 1.407e-02 2.750e+00 
*LOADS
*RC U172:A 2.213e-02
*RC U209:A2 1.656e-02
*END

*R_NET n168 2.187e+00
*DRIVER U221:ZN
*CELL NAND2_X1
*C2_R1_C1 1.093e+00 6.236e-03 1.093e+00 
*LOADS
*RC U212:A1 1.364e-02
*END

*R_NET n169 2.314e+00
*DRIVER U244:ZN
*CELL NAND2_X1
*C2_R1_C1 1.157e+00 6.236e-03 1.157e+00 
*LOADS
*RC U212:A2 1.443e-02
*END

*R_NET n170 5.777e+00
*DRIVER U168:ZN
*CELL XNOR2_X1
*C2_R1_C1 2.888e+00 1.407e-02 2.888e+00 
*LOADS
*RC U244:A2 1.656e-02
*RC U130:B 2.408e-02
*END

*R_NET n171 5.500e+00
*DRIVER U225:ZN
*CELL NAND2_X1
*C2_R1_C1 2.750e+00 1.407e-02 2.750e+00 
*LOADS
*RC U168:A 2.213e-02
*RC U221:A2 1.656e-02
*END
