*SPEF "IEEE 1481-1999"
*DESIGN "traditional_multiplier8"
*DATE "Tue Sep  1 21:57:03 2020"
*VENDOR "SYNOPSYS INC"
*PROGRAM "Synopsys Design Compiler cmos"
*VERSION "N-2017.09-SP3"
*DESIGN_FLOW "SYNTHESIS"
*DIVIDER /
*DELIMITER :
*BUS_DELIMITER []
*T_UNIT 1.0 NS
*C_UNIT 0.0010 PF
*R_UNIT 1000.0 KOHM
*L_UNIT 1.0 HENRY

*PORTS

op1_i\[7\] I *L 0.000e+00 *S 0.000e+00 0.000e+00 
op1_i\[6\] I *L 0.000e+00 *S 0.000e+00 0.000e+00 
op1_i\[5\] I *L 0.000e+00 *S 0.000e+00 0.000e+00 
op1_i\[4\] I *L 0.000e+00 *S 0.000e+00 0.000e+00 
op1_i\[3\] I *L 0.000e+00 *S 0.000e+00 0.000e+00 
op1_i\[2\] I *L 0.000e+00 *S 0.000e+00 0.000e+00 
op1_i\[1\] I *L 0.000e+00 *S 0.000e+00 0.000e+00 
op1_i\[0\] I *L 0.000e+00 *S 0.000e+00 0.000e+00 
op2_i\[7\] I *L 0.000e+00 *S 0.000e+00 0.000e+00 
op2_i\[6\] I *L 0.000e+00 *S 0.000e+00 0.000e+00 
op2_i\[5\] I *L 0.000e+00 *S 0.000e+00 0.000e+00 
op2_i\[4\] I *L 0.000e+00 *S 0.000e+00 0.000e+00 
op2_i\[3\] I *L 0.000e+00 *S 0.000e+00 0.000e+00 
op2_i\[2\] I *L 0.000e+00 *S 0.000e+00 0.000e+00 
op2_i\[1\] I *L 0.000e+00 *S 0.000e+00 0.000e+00 
op2_i\[0\] I *L 0.000e+00 *S 0.000e+00 0.000e+00 
product_o\[15\] O *L 1.000e-01 *S 1.851e-03 1.752e-03 
product_o\[14\] O *L 1.000e-01 *S 2.700e-03 1.836e-03 
product_o\[13\] O *L 1.000e-01 *S 2.769e-03 1.850e-03 
product_o\[12\] O *L 1.000e-01 *S 2.700e-03 1.836e-03 
product_o\[11\] O *L 1.000e-01 *S 2.769e-03 1.850e-03 
product_o\[10\] O *L 1.000e-01 *S 2.769e-03 1.850e-03 
product_o\[9\] O *L 1.000e-01 *S 2.769e-03 1.850e-03 
product_o\[8\] O *L 1.000e-01 *S 2.769e-03 1.850e-03 
product_o\[7\] O *L 1.000e-01 *S 2.769e-03 1.850e-03 
product_o\[6\] O *L 1.000e-01 *S 2.769e-03 1.850e-03 
product_o\[5\] O *L 1.000e-01 *S 2.700e-03 1.836e-03 
product_o\[4\] O *L 1.000e-01 *S 2.769e-03 1.850e-03 
product_o\[3\] O *L 1.000e-01 *S 2.700e-03 1.836e-03 
product_o\[2\] O *L 1.000e-01 *S 2.769e-03 1.850e-03 
product_o\[1\] O *L 1.000e-01 *S 2.769e-03 1.850e-03 
product_o\[0\] O *L 1.000e-01 *S 2.946e-03 1.653e-03 

*R_NET op1_i\[7\] 1.182e+01
*DRIVER op1_i\[7\]
*CELL NULL
*C2_R1_C1 5.909e+00 5.299e-02 5.909e+00 
*LOADS
*RC U551:A 2.196e-02
*RC U618:A1 1.354e-02
*RC U655:A1 2.045e-02
*RC U657:A1 2.045e-02
*RC U669:A3 1.399e-02
*RC U671:A3 1.399e-02
*END

*R_NET op1_i\[6\] 1.169e+01
*DRIVER op1_i\[6\]
*CELL NULL
*C2_R1_C1 5.843e+00 4.254e-02 5.843e+00 
*LOADS
*RC U530:A1 1.957e-02
*RC U531:A 2.102e-02
*RC U576:A1 1.957e-02
*RC U648:A2 1.971e-02
*RC U656:A1 1.957e-02
*END

*R_NET op1_i\[5\] 2.412e+01
*DRIVER op1_i\[5\]
*CELL NULL
*C2_R1_C1 1.206e+01 9.378e-02 1.206e+01 
*LOADS
*RC U544:A2 2.317e-02
*RC U550:A 2.357e-02
*RC U574:A2 2.317e-02
*RC U577:A1 2.197e-02
*RC U607:A1 2.159e-02
*RC U644:A1 2.197e-02
*RC U654:A3 2.297e-02
*RC U660:A1 2.197e-02
*RC U664:A3 2.297e-02
*RC U667:A3 2.297e-02
*END

*R_NET op1_i\[4\] 2.421e+01
*DRIVER op1_i\[4\]
*CELL NULL
*C2_R1_C1 1.211e+01 9.378e-02 1.211e+01 
*LOADS
*RC U549:A 2.357e-02
*RC U556:A2 2.317e-02
*RC U570:A2 2.317e-02
*RC U575:A2 2.317e-02
*RC U584:A2 2.317e-02
*RC U592:A1 2.159e-02
*RC U610:A1 2.159e-02
*RC U646:A2 2.317e-02
*RC U652:A2 2.317e-02
*RC U653:A1 2.159e-02
*END

*R_NET op1_i\[3\] 2.409e+01
*DRIVER op1_i\[3\]
*CELL NULL
*C2_R1_C1 1.204e+01 9.378e-02 1.204e+01 
*LOADS
*RC U534:A2 2.317e-02
*RC U542:A2 2.317e-02
*RC U548:A 2.357e-02
*RC U564:A1 2.159e-02
*RC U569:A2 2.317e-02
*RC U572:A1 2.197e-02
*RC U601:A1 2.159e-02
*RC U617:A1 2.159e-02
*RC U630:A2 2.317e-02
*RC U640:A2 2.317e-02
*END

*R_NET op1_i\[2\] 2.409e+01
*DRIVER op1_i\[2\]
*CELL NULL
*C2_R1_C1 1.204e+01 9.378e-02 1.204e+01 
*LOADS
*RC U533:A2 2.317e-02
*RC U540:A2 2.317e-02
*RC U547:A 2.357e-02
*RC U563:A1 2.159e-02
*RC U568:A2 2.317e-02
*RC U573:A1 2.197e-02
*RC U595:A1 2.159e-02
*RC U614:A1 2.159e-02
*RC U627:A2 2.317e-02
*RC U636:A2 2.317e-02
*END

*R_NET op1_i\[1\] 2.629e+01
*DRIVER op1_i\[1\]
*CELL NULL
*C2_R1_C1 1.314e+01 9.654e-02 1.314e+01 
*LOADS
*RC U546:A1 2.030e-02
*RC U554:A2 2.142e-02
*RC U560:A 2.180e-02
*RC U562:A3 2.124e-02
*RC U567:A1 1.994e-02
*RC U571:A2 2.142e-02
*RC U580:A1 2.030e-02
*RC U604:A3 2.124e-02
*RC U611:A1 2.030e-02
*RC U624:A2 2.142e-02
*RC U670:A2 2.142e-02
*END

*R_NET op1_i\[0\] 2.292e+01
*DRIVER op1_i\[0\]
*CELL NULL
*C2_R1_C1 1.146e+01 9.378e-02 1.146e+01 
*LOADS
*RC U532:A1 2.197e-02
*RC U536:A1 2.197e-02
*RC U552:A 2.357e-02
*RC U559:A1 2.197e-02
*RC U561:A1 2.159e-02
*RC U588:A1 2.197e-02
*RC U598:A3 2.297e-02
*RC U621:A1 2.197e-02
*RC U633:A3 1.511e-02
*RC U668:A1 2.197e-02
*END

*R_NET op2_i\[7\] 1.842e+01
*DRIVER op2_i\[7\]
*CELL NULL
*C2_R1_C1 9.212e+00 8.097e-02 9.212e+00 
*LOADS
*RC U621:A2 2.538e-02
*RC U624:A1 2.409e-02
*RC U627:A1 2.409e-02
*RC U630:A1 2.409e-02
*RC U642:A 2.581e-02
*RC U652:A1 2.409e-02
*RC U664:A1 2.368e-02
*RC U671:A1 1.537e-02
*END

*R_NET op2_i\[6\] 3.187e+01
*DRIVER op2_i\[6\]
*CELL NULL
*C2_R1_C1 1.594e+01 1.323e-01 1.594e+01 
*LOADS
*RC U559:A2 2.553e-02
*RC U562:A1 2.382e-02
*RC U563:A3 2.533e-02
*RC U564:A3 2.533e-02
*RC U580:A2 2.553e-02
*RC U584:A1 2.424e-02
*RC U636:A1 2.424e-02
*RC U640:A1 2.424e-02
*RC U649:A 2.597e-02
*RC U653:A3 2.533e-02
*RC U654:A1 2.382e-02
*RC U660:A2 2.553e-02
*RC U663:A2 2.553e-02
*END

*R_NET op2_i\[5\] 3.088e+01
*DRIVER op2_i\[5\]
*CELL NULL
*C2_R1_C1 1.544e+01 1.323e-01 1.544e+01 
*LOADS
*RC U532:A2 2.553e-02
*RC U533:A1 2.424e-02
*RC U534:A1 2.424e-02
*RC U546:A2 2.553e-02
*RC U604:A1 2.382e-02
*RC U610:A3 2.533e-02
*RC U614:A3 2.533e-02
*RC U617:A3 2.533e-02
*RC U633:A1 1.548e-02
*RC U644:A2 2.553e-02
*RC U646:A1 2.424e-02
*RC U647:A 2.597e-02
*RC U667:A1 2.382e-02
*END

*R_NET op2_i\[4\] 4.751e+00
*DRIVER op2_i\[4\]
*CELL NULL
*C2_R1_C1 2.375e+00 1.407e-02 2.375e+00 
*LOADS
*RC U538:A 1.686e-02
*RC U655:A2 1.656e-02
*END

*R_NET op2_i\[3\] 2.232e+01
*DRIVER op2_i\[3\]
*CELL NULL
*C2_R1_C1 1.116e+01 9.102e-02 1.116e+01 
*LOADS
*RC U561:A2 2.423e-02
*RC U572:A2 2.535e-02
*RC U573:A2 2.535e-02
*RC U575:A1 2.406e-02
*RC U577:A2 2.535e-02
*RC U588:A2 2.535e-02
*RC U611:A2 2.535e-02
*RC U656:A2 2.535e-02
*RC U657:A2 2.535e-02
*END

*R_NET op2_i\[2\] 3.633e+01
*DRIVER op2_i\[2\]
*CELL NULL
*C2_R1_C1 1.816e+01 1.680e-01 1.816e+01 
*LOADS
*RC U530:A2 2.868e-02
*RC U536:A2 2.868e-02
*RC U540:A1 2.725e-02
*RC U542:A1 2.725e-02
*RC U544:A1 2.725e-02
*RC U554:A1 2.725e-02
*RC U556:A1 2.725e-02
*RC U567:A3 2.845e-02
*RC U592:A3 2.845e-02
*RC U595:A3 2.845e-02
*RC U598:A1 2.679e-02
*RC U601:A3 2.845e-02
*RC U607:A3 2.845e-02
*RC U648:A1 2.679e-02
*RC U669:A1 1.761e-02
*END

*R_NET op2_i\[1\] 1.857e+01
*DRIVER op2_i\[1\]
*CELL NULL
*C2_R1_C1 9.286e+00 8.097e-02 9.286e+00 
*LOADS
*RC U568:A1 2.409e-02
*RC U569:A1 2.409e-02
*RC U570:A1 2.409e-02
*RC U571:A1 2.409e-02
*RC U574:A1 2.409e-02
*RC U576:A2 2.538e-02
*RC U618:A2 1.678e-02
*RC U668:A2 2.538e-02
*END

*R_NET op2_i\[0\] 4.623e+00
*DRIVER op2_i\[0\]
*CELL NULL
*C2_R1_C1 2.312e+00 1.407e-02 2.312e+00 
*LOADS
*RC U537:A 1.686e-02
*RC U670:A1 1.566e-02
*END

*R_NET product_o\[15\] 4.097e-01
*DRIVER U483:ZN
*CELL NAND2_X1
*C2_R1_C1 2.049e-01 6.236e-03 2.049e-01 
*LOADS
*RC product_o\[15\] 2.555e-03
*END

*R_NET product_o\[14\] 4.097e-01
*DRIVER U457:ZN
*CELL XNOR2_X1
*C2_R1_C1 2.049e-01 6.236e-03 2.049e-01 
*LOADS
*RC product_o\[14\] 2.555e-03
*END

*R_NET product_o\[13\] 4.097e-01
*DRIVER U319:Z
*CELL XOR2_X1
*C2_R1_C1 2.049e-01 6.236e-03 2.049e-01 
*LOADS
*RC product_o\[13\] 2.555e-03
*END

*R_NET product_o\[12\] 4.097e-01
*DRIVER U389:ZN
*CELL XNOR2_X1
*C2_R1_C1 2.049e-01 6.236e-03 2.049e-01 
*LOADS
*RC product_o\[12\] 2.555e-03
*END

*R_NET product_o\[11\] 4.097e-01
*DRIVER U325:Z
*CELL XOR2_X1
*C2_R1_C1 2.049e-01 6.236e-03 2.049e-01 
*LOADS
*RC product_o\[11\] 2.555e-03
*END

*R_NET product_o\[10\] 4.097e-01
*DRIVER U330:Z
*CELL XOR2_X1
*C2_R1_C1 2.049e-01 6.236e-03 2.049e-01 
*LOADS
*RC product_o\[10\] 2.555e-03
*END

*R_NET product_o\[9\] 4.097e-01
*DRIVER U308:Z
*CELL XOR2_X1
*C2_R1_C1 2.049e-01 6.236e-03 2.049e-01 
*LOADS
*RC product_o\[9\] 2.555e-03
*END

*R_NET product_o\[8\] 4.097e-01
*DRIVER U310:Z
*CELL XOR2_X1
*C2_R1_C1 2.049e-01 6.236e-03 2.049e-01 
*LOADS
*RC product_o\[8\] 2.555e-03
*END

*R_NET product_o\[7\] 4.097e-01
*DRIVER U312:Z
*CELL XOR2_X1
*C2_R1_C1 2.049e-01 6.236e-03 2.049e-01 
*LOADS
*RC product_o\[7\] 2.555e-03
*END

*R_NET product_o\[6\] 4.097e-01
*DRIVER U313:Z
*CELL XOR2_X1
*C2_R1_C1 2.049e-01 6.236e-03 2.049e-01 
*LOADS
*RC product_o\[6\] 2.555e-03
*END

*R_NET product_o\[5\] 4.097e-01
*DRIVER U414:ZN
*CELL XNOR2_X1
*C2_R1_C1 2.049e-01 6.236e-03 2.049e-01 
*LOADS
*RC product_o\[5\] 2.555e-03
*END

*R_NET product_o\[4\] 4.097e-01
*DRIVER U315:Z
*CELL XOR2_X1
*C2_R1_C1 2.049e-01 6.236e-03 2.049e-01 
*LOADS
*RC product_o\[4\] 2.555e-03
*END

*R_NET product_o\[3\] 4.097e-01
*DRIVER U523:ZN
*CELL XNOR2_X1
*C2_R1_C1 2.049e-01 6.236e-03 2.049e-01 
*LOADS
*RC product_o\[3\] 2.555e-03
*END

*R_NET product_o\[2\] 4.097e-01
*DRIVER U316:Z
*CELL XOR2_X1
*C2_R1_C1 2.049e-01 6.236e-03 2.049e-01 
*LOADS
*RC product_o\[2\] 2.555e-03
*END

*R_NET product_o\[1\] 4.097e-01
*DRIVER U317:Z
*CELL XOR2_X1
*C2_R1_C1 2.049e-01 6.236e-03 2.049e-01 
*LOADS
*RC product_o\[1\] 2.555e-03
*END

*R_NET product_o\[0\] 4.097e-01
*DRIVER U528:ZN
*CELL NOR2_X1
*C2_R1_C1 2.049e-01 6.236e-03 2.049e-01 
*LOADS
*RC product_o\[0\] 2.555e-03
*END

*R_NET n122 2.187e+00
*DRIVER U506:ZN
*CELL INV_X1
*C2_R1_C1 1.093e+00 6.236e-03 1.093e+00 
*LOADS
*RC U504:A1 1.364e-02
*END

*R_NET n123 2.187e+00
*DRIVER U661:ZN
*CELL INV_X1
*C2_R1_C1 1.093e+00 6.236e-03 1.093e+00 
*LOADS
*RC U659:A1 1.364e-02
*END

*R_NET n124 1.124e+01
*DRIVER U551:ZN
*CELL INV_X1
*C2_R1_C1 5.618e+00 4.254e-02 5.618e+00 
*LOADS
*RC U439:A2 2.032e-02
*RC U488:A3 2.000e-02
*RC U498:A2 2.032e-02
*RC U499:A1 2.149e-02
*RC U606:A1 1.348e-02
*END

*R_NET n125 1.857e+01
*DRIVER U531:ZN
*CELL INV_X1
*C2_R1_C1 9.285e+00 8.097e-02 9.285e+00 
*LOADS
*RC U427:A1 2.637e-02
*RC U486:A2 2.498e-02
*RC U490:A1 2.701e-02
*RC U492:A2 2.498e-02
*RC U494:A2 2.498e-02
*RC U501:A1 2.637e-02
*RC U591:A2 1.640e-02
*RC U666:A1 1.685e-02
*END

*R_NET n126 2.187e+00
*DRIVER U585:ZN
*CELL INV_X1
*C2_R1_C1 1.093e+00 6.236e-03 1.093e+00 
*LOADS
*RC U583:A1 1.364e-02
*END

*R_NET n127 1.043e+01
*DRIVER U550:ZN
*CELL INV_X1
*C2_R1_C1 5.213e+00 4.254e-02 5.213e+00 
*LOADS
*RC U433:A1 2.149e-02
*RC U441:A2 2.032e-02
*RC U496:A2 2.032e-02
*RC U600:A2 1.311e-02
*RC U609:A1 1.348e-02
*END

*R_NET n128 2.187e+00
*DRIVER U641:ZN
*CELL INV_X1
*C2_R1_C1 1.093e+00 6.236e-03 1.093e+00 
*LOADS
*RC U639:A1 1.364e-02
*END

*R_NET n129 2.187e+00
*DRIVER U637:ZN
*CELL INV_X1
*C2_R1_C1 1.093e+00 6.236e-03 1.093e+00 
*LOADS
*RC U635:A1 1.364e-02
*END

*R_NET n130 9.672e+00
*DRIVER U549:ZN
*CELL INV_X1
*C2_R1_C1 4.836e+00 4.254e-02 4.836e+00 
*LOADS
*RC U431:A1 2.149e-02
*RC U451:A1 2.149e-02
*RC U525:A2 1.311e-02
*RC U594:A2 1.311e-02
*RC U616:A2 1.311e-02
*END

*R_NET n131 2.187e+00
*DRIVER U581:ZN
*CELL INV_X1
*C2_R1_C1 1.093e+00 6.236e-03 1.093e+00 
*LOADS
*RC U579:A1 1.364e-02
*END

*R_NET n132 2.187e+00
*DRIVER U589:ZN
*CELL INV_X1
*C2_R1_C1 1.093e+00 6.236e-03 1.093e+00 
*LOADS
*RC U587:A1 1.364e-02
*END

*R_NET n133 9.672e+00
*DRIVER U548:ZN
*CELL INV_X1
*C2_R1_C1 4.836e+00 4.254e-02 4.836e+00 
*LOADS
*RC U429:A1 2.149e-02
*RC U449:A1 2.149e-02
*RC U480:A2 1.311e-02
*RC U566:A2 1.311e-02
*RC U613:A2 1.311e-02
*END

*R_NET n134 9.579e+00
*DRIVER U547:ZN
*CELL INV_X1
*C2_R1_C1 4.789e+00 4.254e-02 4.789e+00 
*LOADS
*RC U435:A1 2.149e-02
*RC U437:A2 2.032e-02
*RC U479:A2 1.311e-02
*RC U597:A2 1.311e-02
*RC U603:A1 1.348e-02
*END

*R_NET n135 8.886e+00
*DRIVER U560:ZN
*CELL INV_X1
*C2_R1_C1 4.443e+00 3.293e-02 4.443e+00 
*LOADS
*RC U443:A2 1.955e-02
*RC U482:A2 1.257e-02
*RC U487:A2 1.985e-02
*RC U632:A1 2.120e-02
*END

*R_NET n136 1.106e+01
*DRIVER U552:ZN
*CELL INV_X1
*C2_R1_C1 5.531e+00 4.254e-02 5.531e+00 
*LOADS
*RC U424:A3 2.000e-02
*RC U425:A2 2.032e-02
*RC U481:A1 1.348e-02
*RC U489:A3 2.000e-02
*RC U528:A2 2.032e-02
*END

*R_NET n137 1.314e+01
*DRIVER U642:ZN
*CELL INV_X1
*C2_R1_C1 6.568e+00 6.648e-02 6.568e+00 
*LOADS
*RC U479:A1 1.552e-02
*RC U480:A1 1.552e-02
*RC U481:A2 1.510e-02
*RC U482:A1 1.552e-02
*RC U496:A1 2.445e-02
*RC U501:A2 2.315e-02
*RC U525:A1 1.552e-02
*END

*R_NET n138 7.381e+00
*DRIVER U649:ZN
*CELL INV_X1
*C2_R1_C1 3.690e+00 2.308e-02 3.690e+00 
*LOADS
*RC U424:A1 1.960e-02
*RC U486:A1 1.912e-02
*RC U499:A2 1.806e-02
*END

*R_NET n139 1.001e+01
*DRIVER U647:ZN
*CELL INV_X1
*C2_R1_C1 5.005e+00 3.293e-02 5.005e+00 
*LOADS
*RC U488:A1 2.120e-02
*RC U490:A2 1.985e-02
*RC U492:A1 2.068e-02
*RC U498:A1 2.068e-02
*END

*R_NET n140 3.158e+01
*DRIVER U538:ZN
*CELL INV_X1
*C2_R1_C1 1.579e+01 1.501e-01 1.579e+01 
*LOADS
*RC U425:A1 2.826e-02
*RC U437:A1 2.826e-02
*RC U441:A1 2.826e-02
*RC U443:A1 2.826e-02
*RC U449:A2 2.679e-02
*RC U451:A2 2.679e-02
*RC U489:A2 2.718e-02
*RC U494:A1 2.826e-02
*RC U603:A2 1.769e-02
*RC U609:A2 1.769e-02
*RC U613:A1 1.817e-02
*RC U616:A1 1.817e-02
*RC U632:A2 2.718e-02
*RC U666:A2 1.769e-02
*END

*R_NET n141 3.058e+01
*DRIVER U537:ZN
*CELL INV_X1
*C2_R1_C1 1.529e+01 1.501e-01 1.529e+01 
*LOADS
*RC U427:A2 2.679e-02
*RC U429:A2 2.679e-02
*RC U431:A2 2.679e-02
*RC U433:A2 2.679e-02
*RC U435:A2 2.679e-02
*RC U439:A1 2.826e-02
*RC U487:A1 2.893e-02
*RC U528:A1 2.826e-02
*RC U566:A1 1.817e-02
*RC U591:A1 1.817e-02
*RC U594:A1 1.817e-02
*RC U597:A1 1.817e-02
*RC U600:A1 1.817e-02
*RC U606:A2 1.769e-02
*END

*R_NET n142 5.347e+00
*DRIVER U334:Z
*CELL XOR2_X1
*C2_R1_C1 2.674e+00 1.407e-02 2.674e+00 
*LOADS
*RC U371:A1 1.566e-02
*RC U308:A 2.195e-02
*END

*R_NET n143 3.383e+00
*DRIVER U309:Z
*CELL XOR2_X1
*C2_R1_C1 1.692e+00 6.236e-03 1.692e+00 
*LOADS
*RC U308:B 2.110e-02
*END

*R_NET n144 7.038e+00
*DRIVER U373:ZN
*CELL NAND2_X1
*C2_R1_C1 3.519e+00 2.308e-02 3.519e+00 
*LOADS
*RC U372:A2 1.152e-02
*RC U370:A2 1.836e-02
*RC U309:A 2.426e-02
*END

*R_NET n145 7.241e+00
*DRIVER U394:ZN
*CELL NAND2_X1
*C2_R1_C1 3.621e+00 2.308e-02 3.621e+00 
*LOADS
*RC U372:A1 1.175e-02
*RC U370:A1 1.738e-02
*RC U309:B 2.659e-02
*END

*R_NET n146 3.081e+00
*DRIVER U311:Z
*CELL XOR2_X1
*C2_R1_C1 1.541e+00 6.236e-03 1.541e+00 
*LOADS
*RC U310:A 1.921e-02
*END

*R_NET n147 5.649e+00
*DRIVER U335:Z
*CELL XOR2_X1
*C2_R1_C1 2.825e+00 1.407e-02 2.825e+00 
*LOADS
*RC U375:A1 1.566e-02
*RC U310:B 2.408e-02
*END

*R_NET n148 7.067e+00
*DRIVER U364:ZN
*CELL NAND2_X1
*C2_R1_C1 3.533e+00 2.308e-02 3.533e+00 
*LOADS
*RC U376:A2 1.836e-02
*RC U374:A1 1.175e-02
*RC U311:A 2.426e-02
*END

*R_NET n149 7.213e+00
*DRIVER U397:ZN
*CELL AND2_X1
*C2_R1_C1 3.606e+00 2.308e-02 3.606e+00 
*LOADS
*RC U376:A1 1.738e-02
*RC U374:A2 1.152e-02
*RC U311:B 2.659e-02
*END

*R_NET n150 5.475e+00
*DRIVER U400:ZN
*CELL NAND2_X1
*C2_R1_C1 2.737e+00 1.407e-02 2.737e+00 
*LOADS
*RC U364:A2 1.656e-02
*RC U312:A 2.195e-02
*END

*R_NET n151 5.649e+00
*DRIVER U345:Z
*CELL XOR2_X1
*C2_R1_C1 2.825e+00 1.407e-02 2.825e+00 
*LOADS
*RC U364:A1 1.566e-02
*RC U312:B 2.408e-02
*END

*R_NET n152 5.475e+00
*DRIVER U391:ZN
*CELL NAND2_X1
*C2_R1_C1 2.737e+00 1.407e-02 2.737e+00 
*LOADS
*RC U402:A2 1.656e-02
*RC U313:A 2.195e-02
*END

*R_NET n153 5.649e+00
*DRIVER U340:Z
*CELL XOR2_X1
*C2_R1_C1 2.825e+00 1.407e-02 2.825e+00 
*LOADS
*RC U402:A1 1.566e-02
*RC U313:B 2.408e-02
*END

*R_NET n155 5.449e+00
*DRIVER U386:ZN
*CELL XNOR2_X1
*C2_R1_C1 2.725e+00 1.407e-02 2.725e+00 
*LOADS
*RC U393:A1 1.538e-02
*RC U414:B 2.296e-02
*END

*R_NET n156 7.990e+00
*DRIVER U336:Z
*CELL XOR2_X1
*C2_R1_C1 3.995e+00 2.308e-02 3.995e+00 
*LOADS
*RC U393:A2 1.751e-02
*RC U415:A1 1.738e-02
*RC U315:B 2.659e-02
*END

*R_NET n157 7.906e+00
*DRIVER U478:ZN
*CELL AND3_X1
*C2_R1_C1 3.953e+00 2.308e-02 3.953e+00 
*LOADS
*RC U393:A3 1.820e-02
*RC U415:A2 1.836e-02
*RC U315:A 2.426e-02
*END

*R_NET n158 4.511e+00
*DRIVER U586:ZN
*CELL AND2_X1
*C2_R1_C1 2.256e+00 1.407e-02 2.256e+00 
*LOADS
*RC U478:A1 9.605e-03
*RC U523:A 2.213e-02
*END

*R_NET n159 3.224e+00
*DRIVER U524:ZN
*CELL NAND2_X1
*C2_R1_C1 1.612e+00 6.236e-03 1.612e+00 
*LOADS
*RC U523:B 2.010e-02
*END

*R_NET n160 6.940e+00
*DRIVER U487:ZN
*CELL NOR3_X1
*C2_R1_C1 3.470e+00 2.308e-02 3.470e+00 
*LOADS
*RC U478:A3 1.175e-02
*RC U524:A1 1.738e-02
*RC U316:A 2.426e-02
*END

*R_NET n161 7.306e+00
*DRIVER U535:ZN
*CELL XNOR2_X1
*C2_R1_C1 3.653e+00 2.308e-02 3.653e+00 
*LOADS
*RC U478:A2 1.126e-02
*RC U524:A2 1.836e-02
*RC U316:B 2.659e-02
*END

*R_NET n162 5.398e+00
*DRIVER U668:ZN
*CELL NAND2_X1
*C2_R1_C1 2.699e+00 1.407e-02 2.699e+00 
*LOADS
*RC U487:A3 1.602e-02
*RC U317:A 2.195e-02
*END

*R_NET n163 3.383e+00
*DRIVER U670:ZN
*CELL NAND2_X1
*C2_R1_C1 1.692e+00 6.236e-03 1.692e+00 
*LOADS
*RC U317:B 2.110e-02
*END

*R_NET n164 2.187e+00
*DRIVER U485:ZN
*CELL NAND2_X1
*C2_R1_C1 1.093e+00 6.236e-03 1.093e+00 
*LOADS
*RC U483:A1 1.364e-02
*END

*R_NET n165 2.314e+00
*DRIVER U484:ZN
*CELL NAND2_X1
*C2_R1_C1 1.157e+00 6.236e-03 1.157e+00 
*LOADS
*RC U483:A2 1.443e-02
*END

*R_NET n166 7.803e+00
*DRIVER U671:ZN
*CELL AND3_X1
*C2_R1_C1 3.901e+00 2.308e-02 3.901e+00 
*LOADS
*RC U457:B 2.536e-02
*RC U485:A1 1.738e-02
*RC U484:A1 1.738e-02
*END

*R_NET n167 4.806e+00
*DRIVER U517:ZN
*CELL NAND2_X1
*C2_R1_C1 2.403e+00 1.407e-02 2.403e+00 
*LOADS
*RC U458:A1 1.725e-02
*RC U484:A2 1.656e-02
*END

*R_NET n168 4.669e+00
*DRIVER U377:ZN
*CELL NAND2_X1
*C2_R1_C1 2.334e+00 1.407e-02 2.334e+00 
*LOADS
*RC U458:A2 1.628e-02
*RC U485:A2 1.656e-02
*END

*R_NET n170 1.391e+00
*DRIVER U672:ZN
*CELL NAND2_X1
*C2_R1_C1 6.955e-01 6.236e-03 6.955e-01 
*LOADS
*RC U671:A2 8.674e-03
*END

*R_NET n171 5.347e+00
*DRIVER U501:ZN
*CELL NOR2_X1
*C2_R1_C1 2.674e+00 1.407e-02 2.674e+00 
*LOADS
*RC U672:A1 1.566e-02
*RC U321:A 2.195e-02
*END

*R_NET n172 5.777e+00
*DRIVER U499:ZN
*CELL NOR2_X1
*C2_R1_C1 2.888e+00 1.407e-02 2.888e+00 
*LOADS
*RC U672:A2 1.656e-02
*RC U321:B 2.408e-02
*END

*R_NET n173 2.187e+00
*DRIVER U378:ZN
*CELL OR2_X1
*C2_R1_C1 1.093e+00 6.236e-03 1.093e+00 
*LOADS
*RC U377:A1 1.364e-02
*END

*R_NET n174 2.314e+00
*DRIVER U379:ZN
*CELL NAND2_X1
*C2_R1_C1 1.157e+00 6.236e-03 1.157e+00 
*LOADS
*RC U377:A2 1.443e-02
*END

*R_NET n175 2.187e+00
*DRIVER U380:ZN
*CELL NAND2_X1
*C2_R1_C1 1.093e+00 6.236e-03 1.093e+00 
*LOADS
*RC U379:A1 1.364e-02
*END

*R_NET n176 5.777e+00
*DRIVER U416:ZN
*CELL NAND2_X1
*C2_R1_C1 2.888e+00 1.407e-02 2.888e+00 
*LOADS
*RC U379:A2 1.656e-02
*RC U322:B 2.408e-02
*END

*R_NET n177 6.911e+00
*DRIVER U406:ZN
*CELL AND2_X1
*C2_R1_C1 3.455e+00 2.308e-02 3.455e+00 
*LOADS
*RC U380:A1 1.738e-02
*RC U378:A2 1.152e-02
*RC U322:A 2.426e-02
*END

*R_NET n178 7.369e+00
*DRIVER U410:ZN
*CELL XNOR2_X1
*C2_R1_C1 3.684e+00 2.308e-02 3.684e+00 
*LOADS
*RC U380:A2 1.836e-02
*RC U378:A1 1.175e-02
*RC U319:B 2.659e-02
*END

*R_NET n179 2.187e+00
*DRIVER U518:ZN
*CELL NAND2_X1
*C2_R1_C1 1.093e+00 6.236e-03 1.093e+00 
*LOADS
*RC U517:A1 1.364e-02
*END

*R_NET n180 2.314e+00
*DRIVER U519:ZN
*CELL NAND2_X1
*C2_R1_C1 1.157e+00 6.236e-03 1.157e+00 
*LOADS
*RC U517:A2 1.443e-02
*END

*R_NET n181 5.372e+00
*DRIVER U488:ZN
*CELL NOR3_X1
*C2_R1_C1 2.686e+00 1.407e-02 2.686e+00 
*LOADS
*RC U410:A 2.213e-02
*RC U519:A1 1.566e-02
*END

*R_NET n182 5.606e+00
*DRIVER U320:Z
*CELL XOR2_X1
*C2_R1_C1 2.803e+00 1.407e-02 2.803e+00 
*LOADS
*RC U410:B 2.296e-02
*RC U519:A2 1.656e-02
*END

*R_NET n183 5.649e+00
*DRIVER U321:Z
*CELL XOR2_X1
*C2_R1_C1 2.825e+00 1.407e-02 2.825e+00 
*LOADS
*RC U518:A1 1.566e-02
*RC U320:B 2.408e-02
*END

*R_NET n184 5.475e+00
*DRIVER U662:ZN
*CELL NAND2_X1
*C2_R1_C1 2.737e+00 1.407e-02 2.737e+00 
*LOADS
*RC U518:A2 1.656e-02
*RC U320:A 2.195e-02
*END

*R_NET n185 3.081e+00
*DRIVER U322:Z
*CELL XOR2_X1
*C2_R1_C1 1.541e+00 6.236e-03 1.541e+00 
*LOADS
*RC U319:A 1.921e-02
*END

*R_NET n186 2.187e+00
*DRIVER U663:ZN
*CELL NAND2_X1
*C2_R1_C1 1.093e+00 6.236e-03 1.093e+00 
*LOADS
*RC U662:A1 1.364e-02
*END

*R_NET n187 2.314e+00
*DRIVER U664:ZN
*CELL NAND3_X1
*C2_R1_C1 1.157e+00 6.236e-03 1.157e+00 
*LOADS
*RC U662:A2 1.443e-02
*END

*R_NET n188 5.389e+00
*DRIVER U324:Z
*CELL XOR2_X1
*C2_R1_C1 2.694e+00 1.407e-02 2.694e+00 
*LOADS
*RC U495:A 2.213e-02
*RC U664:A2 1.578e-02
*END

*R_NET n189 5.347e+00
*DRIVER U490:ZN
*CELL NOR3_X1
*C2_R1_C1 2.674e+00 1.407e-02 2.674e+00 
*LOADS
*RC U663:A1 1.566e-02
*RC U324:A 2.195e-02
*END

*R_NET n190 5.497e+00
*DRIVER U495:ZN
*CELL XNOR2_X1
*C2_R1_C1 2.749e+00 1.407e-02 2.749e+00 
*LOADS
*RC U488:A2 1.654e-02
*RC U497:A 2.213e-02
*END

*R_NET n191 4.453e+00
*DRIVER U502:ZN
*CELL NAND3_X1
*C2_R1_C1 2.226e+00 1.407e-02 2.226e+00 
*LOADS
*RC U416:A1 1.566e-02
*RC U503:A1 1.566e-02
*END

*R_NET n192 2.314e+00
*DRIVER U417:ZN
*CELL NAND2_X1
*C2_R1_C1 1.157e+00 6.236e-03 1.157e+00 
*LOADS
*RC U416:A2 1.443e-02
*END

*R_NET n193 5.347e+00
*DRIVER U497:ZN
*CELL XNOR2_X1
*C2_R1_C1 2.674e+00 1.407e-02 2.674e+00 
*LOADS
*RC U417:A1 1.566e-02
*RC U323:A 2.195e-02
*END

*R_NET n194 5.777e+00
*DRIVER U513:ZN
*CELL NAND2_X1
*C2_R1_C1 2.888e+00 1.407e-02 2.888e+00 
*LOADS
*RC U417:A2 1.656e-02
*RC U323:B 2.408e-02
*END

*R_NET n195 1.404e+00
*DRIVER U407:ZN
*CELL OR2_X1
*C2_R1_C1 7.019e-01 6.236e-03 7.019e-01 
*LOADS
*RC U406:A1 8.754e-03
*END

*R_NET n196 1.465e+00
*DRIVER U408:ZN
*CELL NAND2_X1
*C2_R1_C1 7.324e-01 6.236e-03 7.324e-01 
*LOADS
*RC U406:A2 9.134e-03
*END

*R_NET n197 2.187e+00
*DRIVER U409:ZN
*CELL NAND2_X1
*C2_R1_C1 1.093e+00 6.236e-03 1.093e+00 
*LOADS
*RC U408:A1 1.364e-02
*END

*R_NET n198 5.500e+00
*DRIVER U411:ZN
*CELL NAND2_X1
*C2_R1_C1 2.750e+00 1.407e-02 2.750e+00 
*LOADS
*RC U390:A 2.213e-02
*RC U408:A2 1.656e-02
*END

*R_NET n199 7.041e+00
*DRIVER U381:ZN
*CELL AND2_X1
*C2_R1_C1 3.521e+00 2.308e-02 3.521e+00 
*LOADS
*RC U390:B 2.536e-02
*RC U409:A1 1.738e-02
*RC U407:A2 1.152e-02
*END

*R_NET n200 7.092e+00
*DRIVER U503:ZN
*CELL NAND2_X1
*C2_R1_C1 3.546e+00 2.308e-02 3.546e+00 
*LOADS
*RC U389:A 2.446e-02
*RC U409:A2 1.836e-02
*RC U407:A1 1.175e-02
*END

*R_NET n201 3.224e+00
*DRIVER U390:ZN
*CELL XNOR2_X1
*C2_R1_C1 1.612e+00 6.236e-03 1.612e+00 
*LOADS
*RC U389:B 2.010e-02
*END

*R_NET n202 1.404e+00
*DRIVER U382:ZN
*CELL NAND2_X1
*C2_R1_C1 7.019e-01 6.236e-03 7.019e-01 
*LOADS
*RC U381:A1 8.754e-03
*END

*R_NET n203 1.465e+00
*DRIVER U383:ZN
*CELL NAND2_X1
*C2_R1_C1 7.324e-01 6.236e-03 7.324e-01 
*LOADS
*RC U381:A2 9.134e-03
*END

*R_NET n204 2.187e+00
*DRIVER U384:ZN
*CELL OR2_X1
*C2_R1_C1 1.093e+00 6.236e-03 1.093e+00 
*LOADS
*RC U383:A1 1.364e-02
*END

*R_NET n205 5.475e+00
*DRIVER U418:ZN
*CELL NAND2_X1
*C2_R1_C1 2.737e+00 1.407e-02 2.737e+00 
*LOADS
*RC U383:A2 1.656e-02
*RC U326:A 2.195e-02
*END

*R_NET n206 7.369e+00
*DRIVER U365:ZN
*CELL NAND2_X1
*C2_R1_C1 3.684e+00 2.308e-02 3.684e+00 
*LOADS
*RC U384:A1 1.175e-02
*RC U382:A2 1.836e-02
*RC U326:B 2.659e-02
*END

*R_NET n207 6.911e+00
*DRIVER U327:Z
*CELL XOR2_X1
*C2_R1_C1 3.455e+00 2.308e-02 3.455e+00 
*LOADS
*RC U384:A2 1.152e-02
*RC U382:A1 1.738e-02
*RC U325:A 2.426e-02
*END

*R_NET n208 2.187e+00
*DRIVER U412:ZN
*CELL NAND2_X1
*C2_R1_C1 1.093e+00 6.236e-03 1.093e+00 
*LOADS
*RC U411:A1 1.364e-02
*END

*R_NET n209 2.314e+00
*DRIVER U413:ZN
*CELL NAND2_X1
*C2_R1_C1 1.157e+00 6.236e-03 1.157e+00 
*LOADS
*RC U411:A2 1.443e-02
*END

*R_NET n210 5.347e+00
*DRIVER U328:Z
*CELL XOR2_X1
*C2_R1_C1 2.674e+00 1.407e-02 2.674e+00 
*LOADS
*RC U413:A1 1.566e-02
*RC U327:A 2.195e-02
*END

*R_NET n211 5.777e+00
*DRIVER U514:ZN
*CELL NAND2_X1
*C2_R1_C1 2.888e+00 1.407e-02 2.888e+00 
*LOADS
*RC U413:A2 1.656e-02
*RC U327:B 2.408e-02
*END

*R_NET n212 5.347e+00
*DRIVER U329:Z
*CELL XOR2_X1
*C2_R1_C1 2.674e+00 1.407e-02 2.674e+00 
*LOADS
*RC U412:A1 1.566e-02
*RC U328:A 2.195e-02
*END

*R_NET n213 5.777e+00
*DRIVER U511:ZN
*CELL NAND2_X1
*C2_R1_C1 2.888e+00 1.407e-02 2.888e+00 
*LOADS
*RC U412:A2 1.656e-02
*RC U328:B 2.408e-02
*END

*R_NET n214 2.314e+00
*DRIVER U504:ZN
*CELL NAND2_X1
*C2_R1_C1 1.157e+00 6.236e-03 1.157e+00 
*LOADS
*RC U503:A2 1.443e-02
*END

*R_NET n215 2.314e+00
*DRIVER U505:ZN
*CELL NAND2_X1
*C2_R1_C1 1.157e+00 6.236e-03 1.157e+00 
*LOADS
*RC U504:A2 1.443e-02
*END

*R_NET n216 7.779e+00
*DRIVER U650:ZN
*CELL AND2_X1
*C2_R1_C1 3.889e+00 2.308e-02 3.889e+00 
*LOADS
*RC U502:A3 1.820e-02
*RC U505:A1 1.738e-02
*RC U329:A 2.426e-02
*END

*R_NET n217 8.118e+00
*DRIVER U491:ZN
*CELL XNOR2_X1
*C2_R1_C1 4.059e+00 2.308e-02 4.059e+00 
*LOADS
*RC U502:A2 1.751e-02
*RC U505:A2 1.836e-02
*RC U329:B 2.659e-02
*END

*R_NET n218 4.573e+00
*DRIVER U323:Z
*CELL XOR2_X1
*C2_R1_C1 2.287e+00 1.407e-02 2.287e+00 
*LOADS
*RC U502:A1 1.538e-02
*RC U506:A 1.686e-02
*END

*R_NET n219 4.453e+00
*DRIVER U654:ZN
*CELL NAND3_X1
*C2_R1_C1 2.226e+00 1.407e-02 2.226e+00 
*LOADS
*RC U513:A1 1.566e-02
*RC U658:A1 1.566e-02
*END

*R_NET n220 3.797e+00
*DRIVER U525:ZN
*CELL OR3_X1
*C2_R1_C1 1.899e+00 1.407e-02 1.899e+00 
*LOADS
*RC U513:A2 1.656e-02
*RC U650:A1 1.015e-02
*END

*R_NET n221 3.224e+00
*DRIVER U498:ZN
*CELL NOR2_X1
*C2_R1_C1 1.612e+00 6.236e-03 1.612e+00 
*LOADS
*RC U497:B 2.010e-02
*END

*R_NET n222 3.224e+00
*DRIVER U496:ZN
*CELL NOR2_X1
*C2_R1_C1 1.612e+00 6.236e-03 1.612e+00 
*LOADS
*RC U495:B 2.010e-02
*END

*R_NET n223 3.383e+00
*DRIVER U486:ZN
*CELL NOR2_X1
*C2_R1_C1 1.692e+00 6.236e-03 1.692e+00 
*LOADS
*RC U324:B 2.110e-02
*END

*R_NET n224 5.423e+00
*DRIVER U655:ZN
*CELL NAND2_X1
*C2_R1_C1 2.711e+00 1.407e-02 2.711e+00 
*LOADS
*RC U490:A3 1.602e-02
*RC U491:A 2.213e-02
*END

*R_NET n225 3.383e+00
*DRIVER U326:Z
*CELL XOR2_X1
*C2_R1_C1 1.692e+00 6.236e-03 1.692e+00 
*LOADS
*RC U325:B 2.110e-02
*END

*R_NET n226 2.187e+00
*DRIVER U366:ZN
*CELL OR2_X1
*C2_R1_C1 1.093e+00 6.236e-03 1.093e+00 
*LOADS
*RC U365:A1 1.364e-02
*END

*R_NET n227 2.314e+00
*DRIVER U367:ZN
*CELL NAND2_X1
*C2_R1_C1 1.157e+00 6.236e-03 1.157e+00 
*LOADS
*RC U365:A2 1.443e-02
*END

*R_NET n228 2.187e+00
*DRIVER U368:ZN
*CELL NAND2_X1
*C2_R1_C1 1.093e+00 6.236e-03 1.093e+00 
*LOADS
*RC U367:A1 1.364e-02
*END

*R_NET n229 5.475e+00
*DRIVER U421:ZN
*CELL NAND2_X1
*C2_R1_C1 2.737e+00 1.407e-02 2.737e+00 
*LOADS
*RC U367:A2 1.656e-02
*RC U333:A 2.195e-02
*END

*R_NET n230 7.213e+00
*DRIVER U369:ZN
*CELL AND2_X1
*C2_R1_C1 3.606e+00 2.308e-02 3.606e+00 
*LOADS
*RC U368:A1 1.738e-02
*RC U366:A2 1.152e-02
*RC U333:B 2.659e-02
*END

*R_NET n231 7.369e+00
*DRIVER U385:ZN
*CELL XNOR2_X1
*C2_R1_C1 3.684e+00 2.308e-02 3.684e+00 
*LOADS
*RC U368:A2 1.836e-02
*RC U366:A1 1.175e-02
*RC U330:B 2.659e-02
*END

*R_NET n232 2.187e+00
*DRIVER U419:ZN
*CELL NAND2_X1
*C2_R1_C1 1.093e+00 6.236e-03 1.093e+00 
*LOADS
*RC U418:A1 1.364e-02
*END

*R_NET n233 2.314e+00
*DRIVER U420:ZN
*CELL NAND2_X1
*C2_R1_C1 1.157e+00 6.236e-03 1.157e+00 
*LOADS
*RC U418:A2 1.443e-02
*END

*R_NET n234 5.372e+00
*DRIVER U331:Z
*CELL XOR2_X1
*C2_R1_C1 2.686e+00 1.407e-02 2.686e+00 
*LOADS
*RC U385:A 2.213e-02
*RC U420:A1 1.566e-02
*END

*R_NET n235 5.606e+00
*DRIVER U507:ZN
*CELL NAND2_X1
*C2_R1_C1 2.803e+00 1.407e-02 2.803e+00 
*LOADS
*RC U385:B 2.296e-02
*RC U420:A2 1.656e-02
*END

*R_NET n236 5.347e+00
*DRIVER U332:Z
*CELL XOR2_X1
*C2_R1_C1 2.674e+00 1.407e-02 2.674e+00 
*LOADS
*RC U419:A1 1.566e-02
*RC U331:A 2.195e-02
*END

*R_NET n237 5.777e+00
*DRIVER U510:ZN
*CELL NAND2_X1
*C2_R1_C1 2.888e+00 1.407e-02 2.888e+00 
*LOADS
*RC U419:A2 1.656e-02
*RC U331:B 2.408e-02
*END

*R_NET n238 2.187e+00
*DRIVER U515:ZN
*CELL NAND2_X1
*C2_R1_C1 1.093e+00 6.236e-03 1.093e+00 
*LOADS
*RC U514:A1 1.364e-02
*END

*R_NET n239 2.314e+00
*DRIVER U516:ZN
*CELL OR2_X1
*C2_R1_C1 1.157e+00 6.236e-03 1.157e+00 
*LOADS
*RC U514:A2 1.443e-02
*END

*R_NET n240 4.615e+00
*DRIVER U628:ZN
*CELL NAND2_X1
*C2_R1_C1 2.307e+00 1.407e-02 2.307e+00 
*LOADS
*RC U516:A1 1.051e-02
*RC U332:A 2.195e-02
*END

*R_NET n241 4.888e+00
*DRIVER U500:ZN
*CELL XNOR2_X1
*C2_R1_C1 2.444e+00 1.407e-02 2.444e+00 
*LOADS
*RC U516:A2 1.031e-02
*RC U332:B 2.408e-02
*END

*R_NET n242 5.478e+00
*DRIVER U643:ZN
*CELL XNOR2_X1
*C2_R1_C1 2.739e+00 1.407e-02 2.739e+00 
*LOADS
*RC U500:B 2.296e-02
*RC U515:A1 1.566e-02
*END

*R_NET n243 5.500e+00
*DRIVER U526:ZN
*CELL NAND2_X1
*C2_R1_C1 2.750e+00 1.407e-02 2.750e+00 
*LOADS
*RC U500:A 2.213e-02
*RC U515:A2 1.656e-02
*END

*R_NET n244 4.453e+00
*DRIVER U653:ZN
*CELL NAND3_X1
*C2_R1_C1 2.226e+00 1.407e-02 2.226e+00 
*LOADS
*RC U511:A1 1.566e-02
*RC U582:A1 1.566e-02
*END

*R_NET n245 4.580e+00
*DRIVER U480:ZN
*CELL OR3_X1
*C2_R1_C1 2.290e+00 1.407e-02 2.290e+00 
*LOADS
*RC U511:A2 1.656e-02
*RC U628:A1 1.566e-02
*END

*R_NET n246 3.224e+00
*DRIVER U492:ZN
*CELL NOR2_X1
*C2_R1_C1 1.612e+00 6.236e-03 1.612e+00 
*LOADS
*RC U491:B 2.010e-02
*END

*R_NET n247 1.465e+00
*DRIVER U651:ZN
*CELL NAND2_X1
*C2_R1_C1 7.324e-01 6.236e-03 7.324e-01 
*LOADS
*RC U650:A2 9.134e-03
*END

*R_NET n248 2.187e+00
*DRIVER U652:ZN
*CELL NAND2_X1
*C2_R1_C1 1.093e+00 6.236e-03 1.093e+00 
*LOADS
*RC U651:A1 1.364e-02
*END

*R_NET n249 3.790e+00
*DRIVER U658:ZN
*CELL NAND2_X1
*C2_R1_C1 1.895e+00 1.407e-02 1.895e+00 
*LOADS
*RC U525:A3 1.010e-02
*RC U651:A2 1.656e-02
*END

*R_NET n250 2.314e+00
*DRIVER U659:ZN
*CELL NAND2_X1
*C2_R1_C1 1.157e+00 6.236e-03 1.157e+00 
*LOADS
*RC U658:A2 1.443e-02
*END

*R_NET n251 2.314e+00
*DRIVER U660:ZN
*CELL NAND2_X1
*C2_R1_C1 1.157e+00 6.236e-03 1.157e+00 
*LOADS
*RC U659:A2 1.443e-02
*END

*R_NET n252 4.640e+00
*DRIVER U665:ZN
*CELL NAND2_X1
*C2_R1_C1 2.320e+00 1.407e-02 2.320e+00 
*LOADS
*RC U654:A2 1.578e-02
*RC U661:A 1.686e-02
*END

*R_NET n253 2.187e+00
*DRIVER U666:ZN
*CELL OR3_X1
*C2_R1_C1 1.093e+00 6.236e-03 1.093e+00 
*LOADS
*RC U665:A1 1.364e-02
*END

*R_NET n254 2.314e+00
*DRIVER U667:ZN
*CELL NAND3_X1
*C2_R1_C1 1.157e+00 6.236e-03 1.157e+00 
*LOADS
*RC U665:A2 1.443e-02
*END

*R_NET n255 5.495e+00
*DRIVER U493:ZN
*CELL XNOR2_X1
*C2_R1_C1 2.747e+00 1.407e-02 2.747e+00 
*LOADS
*RC U643:B 2.296e-02
*RC U667:A2 1.578e-02
*END

*R_NET n256 4.582e+00
*DRIVER U657:ZN
*CELL NAND2_X1
*C2_R1_C1 2.291e+00 1.407e-02 2.291e+00 
*LOADS
*RC U493:A 2.213e-02
*RC U666:A3 1.010e-02
*END

*R_NET n257 3.081e+00
*DRIVER U333:Z
*CELL XOR2_X1
*C2_R1_C1 1.541e+00 6.236e-03 1.541e+00 
*LOADS
*RC U330:A 1.921e-02
*END

*R_NET n258 2.187e+00
*DRIVER U508:ZN
*CELL NAND2_X1
*C2_R1_C1 1.093e+00 6.236e-03 1.093e+00 
*LOADS
*RC U507:A1 1.364e-02
*END

*R_NET n259 2.314e+00
*DRIVER U509:ZN
*CELL OR2_X1